version 2
run General-0-20120322-17:01:21-2625
attr configname General
attr datetime 20120322-17:01:21
attr experiment General
attr inifile /home/kacper/omnetpp-4.1/workspace/ReaSE/simulations/omnetpp.ini
attr iterationvars ""
attr iterationvars2 $repetition=0
attr measurement ""
attr network Inet
attr processid 2625
attr repetition 0
attr replication #0
attr resultdir results
attr runnumber 0
attr seedset 0

scalar Inet.sas0.core0.networkLayer.arp 	"ARP requests sent" 	0
scalar Inet.sas0.core0.networkLayer.arp 	"ARP replies sent" 	0
scalar Inet.sas0.core0.networkLayer.arp 	"ARP resolutions" 	0
scalar Inet.sas0.core0.networkLayer.arp 	"failed ARP resolutions" 	0
scalar Inet.sas0.core0.ppp[0].queue 	"packets received by queue" 	4333
scalar Inet.sas0.core0.ppp[0].queue 	"packets dropped by queue" 	0
scalar Inet.sas0.core0.ppp[1].queue 	"packets received by queue" 	3926
scalar Inet.sas0.core0.ppp[1].queue 	"packets dropped by queue" 	0
scalar Inet.sas0.core0.ppp[2].queue 	"packets received by queue" 	1904
scalar Inet.sas0.core0.ppp[2].queue 	"packets dropped by queue" 	0
scalar Inet.sas0.core0.ppp[3].queue 	"packets received by queue" 	3157
scalar Inet.sas0.core0.ppp[3].queue 	"packets dropped by queue" 	0
scalar Inet.sas0.core0.ppp[4].queue 	"packets received by queue" 	4674
scalar Inet.sas0.core0.ppp[4].queue 	"packets dropped by queue" 	0
scalar Inet.sas0.core0.ppp[5].queue 	"packets received by queue" 	2783
scalar Inet.sas0.core0.ppp[5].queue 	"packets dropped by queue" 	0
scalar Inet.sas0.core0.ppp[6].queue 	"packets received by queue" 	4253
scalar Inet.sas0.core0.ppp[6].queue 	"packets dropped by queue" 	0
scalar Inet.sas0.gw1.networkLayer.arp 	"ARP requests sent" 	0
scalar Inet.sas0.gw1.networkLayer.arp 	"ARP replies sent" 	0
scalar Inet.sas0.gw1.networkLayer.arp 	"ARP resolutions" 	0
scalar Inet.sas0.gw1.networkLayer.arp 	"failed ARP resolutions" 	0
scalar Inet.sas0.gw1.ppp[0].queue 	"packets received by queue" 	2829
scalar Inet.sas0.gw1.ppp[0].queue 	"packets dropped by queue" 	0
scalar Inet.sas0.gw1.ppp[1].queue 	"packets received by queue" 	573
scalar Inet.sas0.gw1.ppp[1].queue 	"packets dropped by queue" 	0
scalar Inet.sas0.gw1.ppp[2].queue 	"packets received by queue" 	383
scalar Inet.sas0.gw1.ppp[2].queue 	"packets dropped by queue" 	0
scalar Inet.sas0.gw1.ppp[3].queue 	"packets received by queue" 	79
scalar Inet.sas0.gw1.ppp[3].queue 	"packets dropped by queue" 	0
scalar Inet.sas0.gw1.ppp[4].queue 	"packets received by queue" 	254
scalar Inet.sas0.gw1.ppp[4].queue 	"packets dropped by queue" 	0
scalar Inet.sas0.gw1.ppp[5].queue 	"packets received by queue" 	1715
scalar Inet.sas0.gw1.ppp[5].queue 	"packets dropped by queue" 	0
scalar Inet.sas0.gw2.networkLayer.arp 	"ARP requests sent" 	0
scalar Inet.sas0.gw2.networkLayer.arp 	"ARP replies sent" 	0
scalar Inet.sas0.gw2.networkLayer.arp 	"ARP resolutions" 	0
scalar Inet.sas0.gw2.networkLayer.arp 	"failed ARP resolutions" 	0
scalar Inet.sas0.gw2.ppp[0].queue 	"packets received by queue" 	4171
scalar Inet.sas0.gw2.ppp[0].queue 	"packets dropped by queue" 	0
scalar Inet.sas0.gw2.ppp[1].queue 	"packets received by queue" 	3012
scalar Inet.sas0.gw2.ppp[1].queue 	"packets dropped by queue" 	0
scalar Inet.sas0.gw2.ppp[2].queue 	"packets received by queue" 	815
scalar Inet.sas0.gw2.ppp[2].queue 	"packets dropped by queue" 	0
scalar Inet.sas0.gw2.ppp[3].queue 	"packets received by queue" 	482
scalar Inet.sas0.gw2.ppp[3].queue 	"packets dropped by queue" 	0
scalar Inet.sas0.gw2.ppp[4].queue 	"packets received by queue" 	519
scalar Inet.sas0.gw2.ppp[4].queue 	"packets dropped by queue" 	0
scalar Inet.sas0.edge3.networkLayer.arp 	"ARP requests sent" 	0
scalar Inet.sas0.edge3.networkLayer.arp 	"ARP replies sent" 	0
scalar Inet.sas0.edge3.networkLayer.arp 	"ARP resolutions" 	0
scalar Inet.sas0.edge3.networkLayer.arp 	"failed ARP resolutions" 	0
scalar Inet.sas0.edge3.ppp[0].queue 	"packets received by queue" 	641
scalar Inet.sas0.edge3.ppp[0].queue 	"packets dropped by queue" 	0
scalar Inet.sas0.edge3.ppp[1].queue 	"packets received by queue" 	9
scalar Inet.sas0.edge3.ppp[1].queue 	"packets dropped by queue" 	0
scalar Inet.sas0.edge3.ppp[2].queue 	"packets received by queue" 	87
scalar Inet.sas0.edge3.ppp[2].queue 	"packets dropped by queue" 	0
scalar Inet.sas0.edge3.ppp[3].queue 	"packets received by queue" 	254
scalar Inet.sas0.edge3.ppp[3].queue 	"packets dropped by queue" 	0
scalar Inet.sas0.edge3.ppp[4].queue 	"packets received by queue" 	47
scalar Inet.sas0.edge3.ppp[4].queue 	"packets dropped by queue" 	0
scalar Inet.sas0.edge3.ppp[5].queue 	"packets received by queue" 	0
scalar Inet.sas0.edge3.ppp[5].queue 	"packets dropped by queue" 	0
scalar Inet.sas0.edge3.ppp[6].queue 	"packets received by queue" 	68
scalar Inet.sas0.edge3.ppp[6].queue 	"packets dropped by queue" 	0
scalar Inet.sas0.edge3.ppp[7].queue 	"packets received by queue" 	63
scalar Inet.sas0.edge3.ppp[7].queue 	"packets dropped by queue" 	0
scalar Inet.sas0.edge3.ppp[8].queue 	"packets received by queue" 	49
scalar Inet.sas0.edge3.ppp[8].queue 	"packets dropped by queue" 	0
scalar Inet.sas0.edge4.networkLayer.arp 	"ARP requests sent" 	0
scalar Inet.sas0.edge4.networkLayer.arp 	"ARP replies sent" 	0
scalar Inet.sas0.edge4.networkLayer.arp 	"ARP resolutions" 	0
scalar Inet.sas0.edge4.networkLayer.arp 	"failed ARP resolutions" 	0
scalar Inet.sas0.edge4.ppp[0].queue 	"packets received by queue" 	412
scalar Inet.sas0.edge4.ppp[0].queue 	"packets dropped by queue" 	0
scalar Inet.sas0.edge4.ppp[1].queue 	"packets received by queue" 	14
scalar Inet.sas0.edge4.ppp[1].queue 	"packets dropped by queue" 	0
scalar Inet.sas0.edge4.ppp[2].queue 	"packets received by queue" 	155
scalar Inet.sas0.edge4.ppp[2].queue 	"packets dropped by queue" 	0
scalar Inet.sas0.edge4.ppp[3].queue 	"packets received by queue" 	28
scalar Inet.sas0.edge4.ppp[3].queue 	"packets dropped by queue" 	0
scalar Inet.sas0.edge4.ppp[4].queue 	"packets received by queue" 	2
scalar Inet.sas0.edge4.ppp[4].queue 	"packets dropped by queue" 	0
scalar Inet.sas0.edge4.ppp[5].queue 	"packets received by queue" 	29
scalar Inet.sas0.edge4.ppp[5].queue 	"packets dropped by queue" 	0
scalar Inet.sas0.edge4.ppp[6].queue 	"packets received by queue" 	59
scalar Inet.sas0.edge4.ppp[6].queue 	"packets dropped by queue" 	0
scalar Inet.sas0.edge4.ppp[7].queue 	"packets received by queue" 	101
scalar Inet.sas0.edge4.ppp[7].queue 	"packets dropped by queue" 	0
scalar Inet.sas0.edge5.networkLayer.arp 	"ARP requests sent" 	0
scalar Inet.sas0.edge5.networkLayer.arp 	"ARP replies sent" 	0
scalar Inet.sas0.edge5.networkLayer.arp 	"ARP resolutions" 	0
scalar Inet.sas0.edge5.networkLayer.arp 	"failed ARP resolutions" 	0
scalar Inet.sas0.edge5.ppp[0].queue 	"packets received by queue" 	93
scalar Inet.sas0.edge5.ppp[0].queue 	"packets dropped by queue" 	0
scalar Inet.sas0.edge5.ppp[1].queue 	"packets received by queue" 	0
scalar Inet.sas0.edge5.ppp[1].queue 	"packets dropped by queue" 	0
scalar Inet.sas0.edge5.ppp[2].queue 	"packets received by queue" 	0
scalar Inet.sas0.edge5.ppp[2].queue 	"packets dropped by queue" 	0
scalar Inet.sas0.edge5.ppp[3].queue 	"packets received by queue" 	31
scalar Inet.sas0.edge5.ppp[3].queue 	"packets dropped by queue" 	0
scalar Inet.sas0.edge5.ppp[4].queue 	"packets received by queue" 	48
scalar Inet.sas0.edge5.ppp[4].queue 	"packets dropped by queue" 	0
scalar Inet.sas0.edge5.ppp[5].queue 	"packets received by queue" 	0
scalar Inet.sas0.edge5.ppp[5].queue 	"packets dropped by queue" 	0
scalar Inet.sas0.edge6.networkLayer.arp 	"ARP requests sent" 	0
scalar Inet.sas0.edge6.networkLayer.arp 	"ARP replies sent" 	0
scalar Inet.sas0.edge6.networkLayer.arp 	"ARP resolutions" 	0
scalar Inet.sas0.edge6.networkLayer.arp 	"failed ARP resolutions" 	0
scalar Inet.sas0.edge6.ppp[0].queue 	"packets received by queue" 	285
scalar Inet.sas0.edge6.ppp[0].queue 	"packets dropped by queue" 	0
scalar Inet.sas0.edge6.ppp[1].queue 	"packets received by queue" 	45
scalar Inet.sas0.edge6.ppp[1].queue 	"packets dropped by queue" 	0
scalar Inet.sas0.edge6.ppp[2].queue 	"packets received by queue" 	13
scalar Inet.sas0.edge6.ppp[2].queue 	"packets dropped by queue" 	0
scalar Inet.sas0.edge6.ppp[3].queue 	"packets received by queue" 	32
scalar Inet.sas0.edge6.ppp[3].queue 	"packets dropped by queue" 	0
scalar Inet.sas0.edge6.ppp[4].queue 	"packets received by queue" 	36
scalar Inet.sas0.edge6.ppp[4].queue 	"packets dropped by queue" 	0
scalar Inet.sas0.edge6.ppp[5].queue 	"packets received by queue" 	78
scalar Inet.sas0.edge6.ppp[5].queue 	"packets dropped by queue" 	0
scalar Inet.sas0.edge6.ppp[6].queue 	"packets received by queue" 	50
scalar Inet.sas0.edge6.ppp[6].queue 	"packets dropped by queue" 	0
scalar Inet.sas0.edge6.ppp[7].queue 	"packets received by queue" 	0
scalar Inet.sas0.edge6.ppp[7].queue 	"packets dropped by queue" 	0
scalar Inet.sas0.edge7.networkLayer.arp 	"ARP requests sent" 	0
scalar Inet.sas0.edge7.networkLayer.arp 	"ARP replies sent" 	0
scalar Inet.sas0.edge7.networkLayer.arp 	"ARP resolutions" 	0
scalar Inet.sas0.edge7.networkLayer.arp 	"failed ARP resolutions" 	0
scalar Inet.sas0.edge7.ppp[0].queue 	"packets received by queue" 	1619
scalar Inet.sas0.edge7.ppp[0].queue 	"packets dropped by queue" 	0
scalar Inet.sas0.edge7.ppp[1].queue 	"packets received by queue" 	132
scalar Inet.sas0.edge7.ppp[1].queue 	"packets dropped by queue" 	0
scalar Inet.sas0.edge7.ppp[2].queue 	"packets received by queue" 	1380
scalar Inet.sas0.edge7.ppp[2].queue 	"packets dropped by queue" 	0
scalar Inet.sas0.edge7.ppp[3].queue 	"packets received by queue" 	60
scalar Inet.sas0.edge7.ppp[3].queue 	"packets dropped by queue" 	0
scalar Inet.sas0.edge7.ppp[4].queue 	"packets received by queue" 	41
scalar Inet.sas0.edge7.ppp[4].queue 	"packets dropped by queue" 	0
scalar Inet.sas0.edge7.ppp[5].queue 	"packets received by queue" 	146
scalar Inet.sas0.edge7.ppp[5].queue 	"packets dropped by queue" 	0
scalar Inet.sas0.edge7.ppp[6].queue 	"packets received by queue" 	112
scalar Inet.sas0.edge7.ppp[6].queue 	"packets dropped by queue" 	0
scalar Inet.sas0.edge7.ppp[7].queue 	"packets received by queue" 	0
scalar Inet.sas0.edge7.ppp[7].queue 	"packets dropped by queue" 	0
scalar Inet.sas0.edge7.ppp[8].queue 	"packets received by queue" 	100
scalar Inet.sas0.edge7.ppp[8].queue 	"packets dropped by queue" 	0
scalar Inet.sas0.edge8.networkLayer.arp 	"ARP requests sent" 	0
scalar Inet.sas0.edge8.networkLayer.arp 	"ARP replies sent" 	0
scalar Inet.sas0.edge8.networkLayer.arp 	"ARP resolutions" 	0
scalar Inet.sas0.edge8.networkLayer.arp 	"failed ARP resolutions" 	0
scalar Inet.sas0.edge8.ppp[0].queue 	"packets received by queue" 	2873
scalar Inet.sas0.edge8.ppp[0].queue 	"packets dropped by queue" 	0
scalar Inet.sas0.edge8.ppp[1].queue 	"packets received by queue" 	1151
scalar Inet.sas0.edge8.ppp[1].queue 	"packets dropped by queue" 	0
scalar Inet.sas0.edge8.ppp[2].queue 	"packets received by queue" 	61
scalar Inet.sas0.edge8.ppp[2].queue 	"packets dropped by queue" 	0
scalar Inet.sas0.edge8.ppp[3].queue 	"packets received by queue" 	1670
scalar Inet.sas0.edge8.ppp[3].queue 	"packets dropped by queue" 	0
scalar Inet.sas0.edge8.ppp[4].queue 	"packets received by queue" 	43
scalar Inet.sas0.edge8.ppp[4].queue 	"packets dropped by queue" 	0
scalar Inet.sas0.edge8.ppp[5].queue 	"packets received by queue" 	0
scalar Inet.sas0.edge8.ppp[5].queue 	"packets dropped by queue" 	0
scalar Inet.sas0.edge8.ppp[6].queue 	"packets received by queue" 	33
scalar Inet.sas0.edge8.ppp[6].queue 	"packets dropped by queue" 	0
scalar Inet.sas0.edge8.ppp[7].queue 	"packets received by queue" 	114
scalar Inet.sas0.edge8.ppp[7].queue 	"packets dropped by queue" 	0
scalar Inet.sas0.edge9.networkLayer.arp 	"ARP requests sent" 	0
scalar Inet.sas0.edge9.networkLayer.arp 	"ARP replies sent" 	0
scalar Inet.sas0.edge9.networkLayer.arp 	"ARP resolutions" 	0
scalar Inet.sas0.edge9.networkLayer.arp 	"failed ARP resolutions" 	0
scalar Inet.sas0.edge9.ppp[0].queue 	"packets received by queue" 	903
scalar Inet.sas0.edge9.ppp[0].queue 	"packets dropped by queue" 	0
scalar Inet.sas0.edge9.ppp[1].queue 	"packets received by queue" 	58
scalar Inet.sas0.edge9.ppp[1].queue 	"packets dropped by queue" 	0
scalar Inet.sas0.edge9.ppp[2].queue 	"packets received by queue" 	263
scalar Inet.sas0.edge9.ppp[2].queue 	"packets dropped by queue" 	0
scalar Inet.sas0.edge9.ppp[3].queue 	"packets received by queue" 	0
scalar Inet.sas0.edge9.ppp[3].queue 	"packets dropped by queue" 	0
scalar Inet.sas0.edge9.ppp[4].queue 	"packets received by queue" 	93
scalar Inet.sas0.edge9.ppp[4].queue 	"packets dropped by queue" 	0
scalar Inet.sas0.edge9.ppp[5].queue 	"packets received by queue" 	81
scalar Inet.sas0.edge9.ppp[5].queue 	"packets dropped by queue" 	0
scalar Inet.sas0.edge9.ppp[6].queue 	"packets received by queue" 	48
scalar Inet.sas0.edge9.ppp[6].queue 	"packets dropped by queue" 	0
scalar Inet.sas0.edge9.ppp[7].queue 	"packets received by queue" 	161
scalar Inet.sas0.edge9.ppp[7].queue 	"packets dropped by queue" 	0
scalar Inet.sas0.edge9.ppp[8].queue 	"packets received by queue" 	14
scalar Inet.sas0.edge9.ppp[8].queue 	"packets dropped by queue" 	0
scalar Inet.sas0.edge9.ppp[9].queue 	"packets received by queue" 	97
scalar Inet.sas0.edge9.ppp[9].queue 	"packets dropped by queue" 	0
scalar Inet.sas0.edge9.ppp[10].queue 	"packets received by queue" 	0
scalar Inet.sas0.edge9.ppp[10].queue 	"packets dropped by queue" 	0
scalar Inet.sas0.edge10.networkLayer.arp 	"ARP requests sent" 	0
scalar Inet.sas0.edge10.networkLayer.arp 	"ARP replies sent" 	0
scalar Inet.sas0.edge10.networkLayer.arp 	"ARP resolutions" 	0
scalar Inet.sas0.edge10.networkLayer.arp 	"failed ARP resolutions" 	0
scalar Inet.sas0.edge10.ppp[0].queue 	"packets received by queue" 	521
scalar Inet.sas0.edge10.ppp[0].queue 	"packets dropped by queue" 	0
scalar Inet.sas0.edge10.ppp[1].queue 	"packets received by queue" 	0
scalar Inet.sas0.edge10.ppp[1].queue 	"packets dropped by queue" 	0
scalar Inet.sas0.edge10.ppp[2].queue 	"packets received by queue" 	131
scalar Inet.sas0.edge10.ppp[2].queue 	"packets dropped by queue" 	0
scalar Inet.sas0.edge10.ppp[3].queue 	"packets received by queue" 	161
scalar Inet.sas0.edge10.ppp[3].queue 	"packets dropped by queue" 	0
scalar Inet.sas0.edge10.ppp[4].queue 	"packets received by queue" 	140
scalar Inet.sas0.edge10.ppp[4].queue 	"packets dropped by queue" 	0
scalar Inet.sas0.edge10.ppp[5].queue 	"packets received by queue" 	53
scalar Inet.sas0.edge10.ppp[5].queue 	"packets dropped by queue" 	0
scalar Inet.sas0.edge11.networkLayer.arp 	"ARP requests sent" 	0
scalar Inet.sas0.edge11.networkLayer.arp 	"ARP replies sent" 	0
scalar Inet.sas0.edge11.networkLayer.arp 	"ARP resolutions" 	0
scalar Inet.sas0.edge11.networkLayer.arp 	"failed ARP resolutions" 	0
scalar Inet.sas0.edge11.ppp[0].queue 	"packets received by queue" 	449
scalar Inet.sas0.edge11.ppp[0].queue 	"packets dropped by queue" 	0
scalar Inet.sas0.edge11.ppp[1].queue 	"packets received by queue" 	61
scalar Inet.sas0.edge11.ppp[1].queue 	"packets dropped by queue" 	0
scalar Inet.sas0.edge11.ppp[2].queue 	"packets received by queue" 	238
scalar Inet.sas0.edge11.ppp[2].queue 	"packets dropped by queue" 	0
scalar Inet.sas0.edge11.ppp[3].queue 	"packets received by queue" 	0
scalar Inet.sas0.edge11.ppp[3].queue 	"packets dropped by queue" 	0
scalar Inet.sas0.edge11.ppp[4].queue 	"packets received by queue" 	114
scalar Inet.sas0.edge11.ppp[4].queue 	"packets dropped by queue" 	0
scalar Inet.sas0.edge11.ppp[5].queue 	"packets received by queue" 	0
scalar Inet.sas0.edge11.ppp[5].queue 	"packets dropped by queue" 	0
scalar Inet.sas0.edge11.ppp[6].queue 	"packets received by queue" 	77
scalar Inet.sas0.edge11.ppp[6].queue 	"packets dropped by queue" 	0
scalar Inet.sas0.edge11.ppp[7].queue 	"packets received by queue" 	47
scalar Inet.sas0.edge11.ppp[7].queue 	"packets dropped by queue" 	0
scalar Inet.sas0.host12.inetUser 	"Total bytes sent" 	0
scalar Inet.sas0.host12.inetUser 	"Total packets sent" 	0
scalar Inet.sas0.host12.inetUser 	"Total bytes received" 	0
scalar Inet.sas0.host12.inetUser 	"Total packets received" 	0
scalar Inet.sas0.host12.inetUser 	"Initiated sessions" 	0
scalar Inet.sas0.host12.inetUser 	"Total TCP bytes sent" 	0
scalar Inet.sas0.host12.inetUser 	"Total TCP packets sent" 	0
scalar Inet.sas0.host12.inetUser 	"Total TCP bytes received" 	0
scalar Inet.sas0.host12.inetUser 	"Total TCP packets received" 	0
scalar Inet.sas0.host12.inetUser 	"Initiated TCP sessions" 	0
scalar Inet.sas0.host12.inetUser 	"Total UDP bytes sent" 	0
scalar Inet.sas0.host12.inetUser 	"Total UDP packets sent" 	0
scalar Inet.sas0.host12.inetUser 	"Total UDP bytes received" 	0
scalar Inet.sas0.host12.inetUser 	"Total UDP packets received" 	0
scalar Inet.sas0.host12.inetUser 	"Initiated UDP sessions" 	0
scalar Inet.sas0.host12.inetUser 	"Total ICMP bytes sent" 	0
scalar Inet.sas0.host12.inetUser 	"Total ICMP packets sent" 	0
scalar Inet.sas0.host12.inetUser 	"Total ICMP bytes received" 	0
scalar Inet.sas0.host12.inetUser 	"Total ICMP packets received" 	0
scalar Inet.sas0.host12.inetUser 	"Initiated ICMP sessions" 	0
scalar Inet.sas0.host12.networkLayer.arp 	"ARP requests sent" 	0
scalar Inet.sas0.host12.networkLayer.arp 	"ARP replies sent" 	0
scalar Inet.sas0.host12.networkLayer.arp 	"ARP resolutions" 	0
scalar Inet.sas0.host12.networkLayer.arp 	"failed ARP resolutions" 	0
scalar Inet.sas0.host12.ppp[0].queue 	"packets received by queue" 	10
scalar Inet.sas0.host12.ppp[0].queue 	"packets dropped by queue" 	0
scalar Inet.sas0.host13.inetUser 	"Total bytes sent" 	14602
scalar Inet.sas0.host13.inetUser 	"Total packets sent" 	17
scalar Inet.sas0.host13.inetUser 	"Total bytes received" 	15856
scalar Inet.sas0.host13.inetUser 	"Total packets received" 	17
scalar Inet.sas0.host13.inetUser 	"Initiated sessions" 	14
scalar Inet.sas0.host13.inetUser 	"Total TCP bytes sent" 	13987
scalar Inet.sas0.host13.inetUser 	"Total TCP packets sent" 	15
scalar Inet.sas0.host13.inetUser 	"Total TCP bytes received" 	15255
scalar Inet.sas0.host13.inetUser 	"Total TCP packets received" 	15
scalar Inet.sas0.host13.inetUser 	"Initiated TCP sessions" 	12
scalar Inet.sas0.host13.inetUser 	"Total UDP bytes sent" 	615
scalar Inet.sas0.host13.inetUser 	"Total UDP packets sent" 	2
scalar Inet.sas0.host13.inetUser 	"Total UDP bytes received" 	601
scalar Inet.sas0.host13.inetUser 	"Total UDP packets received" 	2
scalar Inet.sas0.host13.inetUser 	"Initiated UDP sessions" 	2
scalar Inet.sas0.host13.inetUser 	"Total ICMP bytes sent" 	0
scalar Inet.sas0.host13.inetUser 	"Total ICMP packets sent" 	0
scalar Inet.sas0.host13.inetUser 	"Total ICMP bytes received" 	0
scalar Inet.sas0.host13.inetUser 	"Total ICMP packets received" 	0
scalar Inet.sas0.host13.inetUser 	"Initiated ICMP sessions" 	0
scalar Inet.sas0.host13.networkLayer.arp 	"ARP requests sent" 	0
scalar Inet.sas0.host13.networkLayer.arp 	"ARP replies sent" 	0
scalar Inet.sas0.host13.networkLayer.arp 	"ARP resolutions" 	0
scalar Inet.sas0.host13.networkLayer.arp 	"failed ARP resolutions" 	0
scalar Inet.sas0.host13.ppp[0].queue 	"packets received by queue" 	105
scalar Inet.sas0.host13.ppp[0].queue 	"packets dropped by queue" 	0
scalar Inet.sas0.host14.inetUser 	"Total bytes sent" 	61371
scalar Inet.sas0.host14.inetUser 	"Total packets sent" 	7
scalar Inet.sas0.host14.inetUser 	"Total bytes received" 	174880
scalar Inet.sas0.host14.inetUser 	"Total packets received" 	7
scalar Inet.sas0.host14.inetUser 	"Initiated sessions" 	5
scalar Inet.sas0.host14.inetUser 	"Total TCP bytes sent" 	61041
scalar Inet.sas0.host14.inetUser 	"Total TCP packets sent" 	6
scalar Inet.sas0.host14.inetUser 	"Total TCP bytes received" 	174578
scalar Inet.sas0.host14.inetUser 	"Total TCP packets received" 	6
scalar Inet.sas0.host14.inetUser 	"Initiated TCP sessions" 	4
scalar Inet.sas0.host14.inetUser 	"Total UDP bytes sent" 	330
scalar Inet.sas0.host14.inetUser 	"Total UDP packets sent" 	1
scalar Inet.sas0.host14.inetUser 	"Total UDP bytes received" 	302
scalar Inet.sas0.host14.inetUser 	"Total UDP packets received" 	1
scalar Inet.sas0.host14.inetUser 	"Initiated UDP sessions" 	1
scalar Inet.sas0.host14.inetUser 	"Total ICMP bytes sent" 	0
scalar Inet.sas0.host14.inetUser 	"Total ICMP packets sent" 	0
scalar Inet.sas0.host14.inetUser 	"Total ICMP bytes received" 	0
scalar Inet.sas0.host14.inetUser 	"Total ICMP packets received" 	0
scalar Inet.sas0.host14.inetUser 	"Initiated ICMP sessions" 	0
scalar Inet.sas0.host14.networkLayer.arp 	"ARP requests sent" 	0
scalar Inet.sas0.host14.networkLayer.arp 	"ARP replies sent" 	0
scalar Inet.sas0.host14.networkLayer.arp 	"ARP resolutions" 	0
scalar Inet.sas0.host14.networkLayer.arp 	"failed ARP resolutions" 	0
scalar Inet.sas0.host14.ppp[0].queue 	"packets received by queue" 	258
scalar Inet.sas0.host14.ppp[0].queue 	"packets dropped by queue" 	0
scalar Inet.sas0.host15.inetUser 	"Total bytes sent" 	2329
scalar Inet.sas0.host15.inetUser 	"Total packets sent" 	11
scalar Inet.sas0.host15.inetUser 	"Total bytes received" 	10600
scalar Inet.sas0.host15.inetUser 	"Total packets received" 	11
scalar Inet.sas0.host15.inetUser 	"Initiated sessions" 	8
scalar Inet.sas0.host15.inetUser 	"Total TCP bytes sent" 	2265
scalar Inet.sas0.host15.inetUser 	"Total TCP packets sent" 	10
scalar Inet.sas0.host15.inetUser 	"Total TCP bytes received" 	10536
scalar Inet.sas0.host15.inetUser 	"Total TCP packets received" 	10
scalar Inet.sas0.host15.inetUser 	"Initiated TCP sessions" 	7
scalar Inet.sas0.host15.inetUser 	"Total UDP bytes sent" 	0
scalar Inet.sas0.host15.inetUser 	"Total UDP packets sent" 	0
scalar Inet.sas0.host15.inetUser 	"Total UDP bytes received" 	0
scalar Inet.sas0.host15.inetUser 	"Total UDP packets received" 	0
scalar Inet.sas0.host15.inetUser 	"Initiated UDP sessions" 	0
scalar Inet.sas0.host15.inetUser 	"Total ICMP bytes sent" 	64
scalar Inet.sas0.host15.inetUser 	"Total ICMP packets sent" 	1
scalar Inet.sas0.host15.inetUser 	"Total ICMP bytes received" 	64
scalar Inet.sas0.host15.inetUser 	"Total ICMP packets received" 	1
scalar Inet.sas0.host15.inetUser 	"Initiated ICMP sessions" 	1
scalar Inet.sas0.host15.networkLayer.arp 	"ARP requests sent" 	0
scalar Inet.sas0.host15.networkLayer.arp 	"ARP replies sent" 	0
scalar Inet.sas0.host15.networkLayer.arp 	"ARP resolutions" 	0
scalar Inet.sas0.host15.networkLayer.arp 	"failed ARP resolutions" 	0
scalar Inet.sas0.host15.ppp[0].queue 	"packets received by queue" 	56
scalar Inet.sas0.host15.ppp[0].queue 	"packets dropped by queue" 	0
scalar Inet.sas0.host_InteractiveServer16.networkLayer.arp 	"ARP requests sent" 	0
scalar Inet.sas0.host_InteractiveServer16.networkLayer.arp 	"ARP replies sent" 	0
scalar Inet.sas0.host_InteractiveServer16.networkLayer.arp 	"ARP resolutions" 	0
scalar Inet.sas0.host_InteractiveServer16.networkLayer.arp 	"failed ARP resolutions" 	0
scalar Inet.sas0.host_InteractiveServer16.ppp[0].queue 	"packets received by queue" 	0
scalar Inet.sas0.host_InteractiveServer16.ppp[0].queue 	"packets dropped by queue" 	0
scalar Inet.sas0.host17.inetUser 	"Total bytes sent" 	3616
scalar Inet.sas0.host17.inetUser 	"Total packets sent" 	13
scalar Inet.sas0.host17.inetUser 	"Total bytes received" 	13089
scalar Inet.sas0.host17.inetUser 	"Total packets received" 	13
scalar Inet.sas0.host17.inetUser 	"Initiated sessions" 	10
scalar Inet.sas0.host17.inetUser 	"Total TCP bytes sent" 	3301
scalar Inet.sas0.host17.inetUser 	"Total TCP packets sent" 	12
scalar Inet.sas0.host17.inetUser 	"Total TCP bytes received" 	12789
scalar Inet.sas0.host17.inetUser 	"Total TCP packets received" 	12
scalar Inet.sas0.host17.inetUser 	"Initiated TCP sessions" 	9
scalar Inet.sas0.host17.inetUser 	"Total UDP bytes sent" 	315
scalar Inet.sas0.host17.inetUser 	"Total UDP packets sent" 	1
scalar Inet.sas0.host17.inetUser 	"Total UDP bytes received" 	300
scalar Inet.sas0.host17.inetUser 	"Total UDP packets received" 	1
scalar Inet.sas0.host17.inetUser 	"Initiated UDP sessions" 	1
scalar Inet.sas0.host17.inetUser 	"Total ICMP bytes sent" 	0
scalar Inet.sas0.host17.inetUser 	"Total ICMP packets sent" 	0
scalar Inet.sas0.host17.inetUser 	"Total ICMP bytes received" 	0
scalar Inet.sas0.host17.inetUser 	"Total ICMP packets received" 	0
scalar Inet.sas0.host17.inetUser 	"Initiated ICMP sessions" 	0
scalar Inet.sas0.host17.networkLayer.arp 	"ARP requests sent" 	0
scalar Inet.sas0.host17.networkLayer.arp 	"ARP replies sent" 	0
scalar Inet.sas0.host17.networkLayer.arp 	"ARP resolutions" 	0
scalar Inet.sas0.host17.networkLayer.arp 	"failed ARP resolutions" 	0
scalar Inet.sas0.host17.ppp[0].queue 	"packets received by queue" 	82
scalar Inet.sas0.host17.ppp[0].queue 	"packets dropped by queue" 	0
scalar Inet.sas0.host18.inetUser 	"Total bytes sent" 	3575
scalar Inet.sas0.host18.inetUser 	"Total packets sent" 	12
scalar Inet.sas0.host18.inetUser 	"Total bytes received" 	13606
scalar Inet.sas0.host18.inetUser 	"Total packets received" 	12
scalar Inet.sas0.host18.inetUser 	"Initiated sessions" 	9
scalar Inet.sas0.host18.inetUser 	"Total TCP bytes sent" 	2933
scalar Inet.sas0.host18.inetUser 	"Total TCP packets sent" 	10
scalar Inet.sas0.host18.inetUser 	"Total TCP bytes received" 	12844
scalar Inet.sas0.host18.inetUser 	"Total TCP packets received" 	10
scalar Inet.sas0.host18.inetUser 	"Initiated TCP sessions" 	8
scalar Inet.sas0.host18.inetUser 	"Total UDP bytes sent" 	642
scalar Inet.sas0.host18.inetUser 	"Total UDP packets sent" 	2
scalar Inet.sas0.host18.inetUser 	"Total UDP bytes received" 	762
scalar Inet.sas0.host18.inetUser 	"Total UDP packets received" 	2
scalar Inet.sas0.host18.inetUser 	"Initiated UDP sessions" 	1
scalar Inet.sas0.host18.inetUser 	"Total ICMP bytes sent" 	0
scalar Inet.sas0.host18.inetUser 	"Total ICMP packets sent" 	0
scalar Inet.sas0.host18.inetUser 	"Total ICMP bytes received" 	0
scalar Inet.sas0.host18.inetUser 	"Total ICMP packets received" 	0
scalar Inet.sas0.host18.inetUser 	"Initiated ICMP sessions" 	0
scalar Inet.sas0.host18.networkLayer.arp 	"ARP requests sent" 	0
scalar Inet.sas0.host18.networkLayer.arp 	"ARP replies sent" 	0
scalar Inet.sas0.host18.networkLayer.arp 	"ARP resolutions" 	0
scalar Inet.sas0.host18.networkLayer.arp 	"failed ARP resolutions" 	0
scalar Inet.sas0.host18.ppp[0].queue 	"packets received by queue" 	73
scalar Inet.sas0.host18.ppp[0].queue 	"packets dropped by queue" 	0
scalar Inet.sas0.host19.inetUser 	"Total bytes sent" 	1810
scalar Inet.sas0.host19.inetUser 	"Total packets sent" 	9
scalar Inet.sas0.host19.inetUser 	"Total bytes received" 	9333
scalar Inet.sas0.host19.inetUser 	"Total packets received" 	9
scalar Inet.sas0.host19.inetUser 	"Initiated sessions" 	7
scalar Inet.sas0.host19.inetUser 	"Total TCP bytes sent" 	1810
scalar Inet.sas0.host19.inetUser 	"Total TCP packets sent" 	9
scalar Inet.sas0.host19.inetUser 	"Total TCP bytes received" 	9333
scalar Inet.sas0.host19.inetUser 	"Total TCP packets received" 	9
scalar Inet.sas0.host19.inetUser 	"Initiated TCP sessions" 	7
scalar Inet.sas0.host19.inetUser 	"Total UDP bytes sent" 	0
scalar Inet.sas0.host19.inetUser 	"Total UDP packets sent" 	0
scalar Inet.sas0.host19.inetUser 	"Total UDP bytes received" 	0
scalar Inet.sas0.host19.inetUser 	"Total UDP packets received" 	0
scalar Inet.sas0.host19.inetUser 	"Initiated UDP sessions" 	0
scalar Inet.sas0.host19.inetUser 	"Total ICMP bytes sent" 	0
scalar Inet.sas0.host19.inetUser 	"Total ICMP packets sent" 	0
scalar Inet.sas0.host19.inetUser 	"Total ICMP bytes received" 	0
scalar Inet.sas0.host19.inetUser 	"Total ICMP packets received" 	0
scalar Inet.sas0.host19.inetUser 	"Initiated ICMP sessions" 	0
scalar Inet.sas0.host19.networkLayer.arp 	"ARP requests sent" 	0
scalar Inet.sas0.host19.networkLayer.arp 	"ARP replies sent" 	0
scalar Inet.sas0.host19.networkLayer.arp 	"ARP resolutions" 	0
scalar Inet.sas0.host19.networkLayer.arp 	"failed ARP resolutions" 	0
scalar Inet.sas0.host19.ppp[0].queue 	"packets received by queue" 	61
scalar Inet.sas0.host19.ppp[0].queue 	"packets dropped by queue" 	0
scalar Inet.sas0.host20.inetUser 	"Total bytes sent" 	201
scalar Inet.sas0.host20.inetUser 	"Total packets sent" 	1
scalar Inet.sas0.host20.inetUser 	"Total bytes received" 	1076
scalar Inet.sas0.host20.inetUser 	"Total packets received" 	1
scalar Inet.sas0.host20.inetUser 	"Initiated sessions" 	1
scalar Inet.sas0.host20.inetUser 	"Total TCP bytes sent" 	201
scalar Inet.sas0.host20.inetUser 	"Total TCP packets sent" 	1
scalar Inet.sas0.host20.inetUser 	"Total TCP bytes received" 	1076
scalar Inet.sas0.host20.inetUser 	"Total TCP packets received" 	1
scalar Inet.sas0.host20.inetUser 	"Initiated TCP sessions" 	1
scalar Inet.sas0.host20.inetUser 	"Total UDP bytes sent" 	0
scalar Inet.sas0.host20.inetUser 	"Total UDP packets sent" 	0
scalar Inet.sas0.host20.inetUser 	"Total UDP bytes received" 	0
scalar Inet.sas0.host20.inetUser 	"Total UDP packets received" 	0
scalar Inet.sas0.host20.inetUser 	"Initiated UDP sessions" 	0
scalar Inet.sas0.host20.inetUser 	"Total ICMP bytes sent" 	0
scalar Inet.sas0.host20.inetUser 	"Total ICMP packets sent" 	0
scalar Inet.sas0.host20.inetUser 	"Total ICMP bytes received" 	0
scalar Inet.sas0.host20.inetUser 	"Total ICMP packets received" 	0
scalar Inet.sas0.host20.inetUser 	"Initiated ICMP sessions" 	0
scalar Inet.sas0.host20.networkLayer.arp 	"ARP requests sent" 	0
scalar Inet.sas0.host20.networkLayer.arp 	"ARP replies sent" 	0
scalar Inet.sas0.host20.networkLayer.arp 	"ARP resolutions" 	0
scalar Inet.sas0.host20.networkLayer.arp 	"failed ARP resolutions" 	0
scalar Inet.sas0.host20.ppp[0].queue 	"packets received by queue" 	18
scalar Inet.sas0.host20.ppp[0].queue 	"packets dropped by queue" 	0
scalar Inet.sas0.host21.inetUser 	"Total bytes sent" 	63618
scalar Inet.sas0.host21.inetUser 	"Total packets sent" 	15
scalar Inet.sas0.host21.inetUser 	"Total bytes received" 	42552
scalar Inet.sas0.host21.inetUser 	"Total packets received" 	15
scalar Inet.sas0.host21.inetUser 	"Initiated sessions" 	10
scalar Inet.sas0.host21.inetUser 	"Total TCP bytes sent" 	63311
scalar Inet.sas0.host21.inetUser 	"Total TCP packets sent" 	14
scalar Inet.sas0.host21.inetUser 	"Total TCP bytes received" 	42205
scalar Inet.sas0.host21.inetUser 	"Total TCP packets received" 	14
scalar Inet.sas0.host21.inetUser 	"Initiated TCP sessions" 	9
scalar Inet.sas0.host21.inetUser 	"Total UDP bytes sent" 	307
scalar Inet.sas0.host21.inetUser 	"Total UDP packets sent" 	1
scalar Inet.sas0.host21.inetUser 	"Total UDP bytes received" 	347
scalar Inet.sas0.host21.inetUser 	"Total UDP packets received" 	1
scalar Inet.sas0.host21.inetUser 	"Initiated UDP sessions" 	1
scalar Inet.sas0.host21.inetUser 	"Total ICMP bytes sent" 	0
scalar Inet.sas0.host21.inetUser 	"Total ICMP packets sent" 	0
scalar Inet.sas0.host21.inetUser 	"Total ICMP bytes received" 	0
scalar Inet.sas0.host21.inetUser 	"Total ICMP packets received" 	0
scalar Inet.sas0.host21.inetUser 	"Initiated ICMP sessions" 	0
scalar Inet.sas0.host21.networkLayer.arp 	"ARP requests sent" 	0
scalar Inet.sas0.host21.networkLayer.arp 	"ARP replies sent" 	0
scalar Inet.sas0.host21.networkLayer.arp 	"ARP resolutions" 	0
scalar Inet.sas0.host21.networkLayer.arp 	"failed ARP resolutions" 	0
scalar Inet.sas0.host21.ppp[0].queue 	"packets received by queue" 	169
scalar Inet.sas0.host21.ppp[0].queue 	"packets dropped by queue" 	0
scalar Inet.sas0.host22.inetUser 	"Total bytes sent" 	731
scalar Inet.sas0.host22.inetUser 	"Total packets sent" 	5
scalar Inet.sas0.host22.inetUser 	"Total bytes received" 	3129
scalar Inet.sas0.host22.inetUser 	"Total packets received" 	5
scalar Inet.sas0.host22.inetUser 	"Initiated sessions" 	4
scalar Inet.sas0.host22.inetUser 	"Total TCP bytes sent" 	602
scalar Inet.sas0.host22.inetUser 	"Total TCP packets sent" 	3
scalar Inet.sas0.host22.inetUser 	"Total TCP bytes received" 	3000
scalar Inet.sas0.host22.inetUser 	"Total TCP packets received" 	3
scalar Inet.sas0.host22.inetUser 	"Initiated TCP sessions" 	3
scalar Inet.sas0.host22.inetUser 	"Total UDP bytes sent" 	0
scalar Inet.sas0.host22.inetUser 	"Total UDP packets sent" 	0
scalar Inet.sas0.host22.inetUser 	"Total UDP bytes received" 	0
scalar Inet.sas0.host22.inetUser 	"Total UDP packets received" 	0
scalar Inet.sas0.host22.inetUser 	"Initiated UDP sessions" 	0
scalar Inet.sas0.host22.inetUser 	"Total ICMP bytes sent" 	129
scalar Inet.sas0.host22.inetUser 	"Total ICMP packets sent" 	2
scalar Inet.sas0.host22.inetUser 	"Total ICMP bytes received" 	129
scalar Inet.sas0.host22.inetUser 	"Total ICMP packets received" 	2
scalar Inet.sas0.host22.inetUser 	"Initiated ICMP sessions" 	1
scalar Inet.sas0.host22.networkLayer.arp 	"ARP requests sent" 	0
scalar Inet.sas0.host22.networkLayer.arp 	"ARP replies sent" 	0
scalar Inet.sas0.host22.networkLayer.arp 	"ARP resolutions" 	0
scalar Inet.sas0.host22.networkLayer.arp 	"failed ARP resolutions" 	0
scalar Inet.sas0.host22.ppp[0].queue 	"packets received by queue" 	35
scalar Inet.sas0.host22.ppp[0].queue 	"packets dropped by queue" 	0
scalar Inet.sas0.host23.classifier 	"Packets seen" 	0
scalar Inet.sas0.host23.networkLayer.arp 	"ARP requests sent" 	0
scalar Inet.sas0.host23.networkLayer.arp 	"ARP replies sent" 	0
scalar Inet.sas0.host23.networkLayer.arp 	"ARP resolutions" 	0
scalar Inet.sas0.host23.networkLayer.arp 	"failed ARP resolutions" 	0
scalar Inet.sas0.host23.ppp[0].queue 	"packets received by queue" 	2
scalar Inet.sas0.host23.ppp[0].queue 	"packets dropped by queue" 	0
scalar Inet.sas0.host24.inetUser 	"Total bytes sent" 	1826
scalar Inet.sas0.host24.inetUser 	"Total packets sent" 	7
scalar Inet.sas0.host24.inetUser 	"Total bytes received" 	4213
scalar Inet.sas0.host24.inetUser 	"Total packets received" 	7
scalar Inet.sas0.host24.inetUser 	"Initiated sessions" 	5
scalar Inet.sas0.host24.inetUser 	"Total TCP bytes sent" 	605
scalar Inet.sas0.host24.inetUser 	"Total TCP packets sent" 	3
scalar Inet.sas0.host24.inetUser 	"Total TCP bytes received" 	3008
scalar Inet.sas0.host24.inetUser 	"Total TCP packets received" 	3
scalar Inet.sas0.host24.inetUser 	"Initiated TCP sessions" 	3
scalar Inet.sas0.host24.inetUser 	"Total UDP bytes sent" 	1221
scalar Inet.sas0.host24.inetUser 	"Total UDP packets sent" 	4
scalar Inet.sas0.host24.inetUser 	"Total UDP bytes received" 	1205
scalar Inet.sas0.host24.inetUser 	"Total UDP packets received" 	4
scalar Inet.sas0.host24.inetUser 	"Initiated UDP sessions" 	2
scalar Inet.sas0.host24.inetUser 	"Total ICMP bytes sent" 	0
scalar Inet.sas0.host24.inetUser 	"Total ICMP packets sent" 	0
scalar Inet.sas0.host24.inetUser 	"Total ICMP bytes received" 	0
scalar Inet.sas0.host24.inetUser 	"Total ICMP packets received" 	0
scalar Inet.sas0.host24.inetUser 	"Initiated ICMP sessions" 	0
scalar Inet.sas0.host24.networkLayer.arp 	"ARP requests sent" 	0
scalar Inet.sas0.host24.networkLayer.arp 	"ARP replies sent" 	0
scalar Inet.sas0.host24.networkLayer.arp 	"ARP resolutions" 	0
scalar Inet.sas0.host24.networkLayer.arp 	"failed ARP resolutions" 	0
scalar Inet.sas0.host24.ppp[0].queue 	"packets received by queue" 	29
scalar Inet.sas0.host24.ppp[0].queue 	"packets dropped by queue" 	0
scalar Inet.sas0.host25.inetUser 	"Total bytes sent" 	4112
scalar Inet.sas0.host25.inetUser 	"Total packets sent" 	13
scalar Inet.sas0.host25.inetUser 	"Total bytes received" 	15338
scalar Inet.sas0.host25.inetUser 	"Total packets received" 	13
scalar Inet.sas0.host25.inetUser 	"Initiated sessions" 	8
scalar Inet.sas0.host25.inetUser 	"Total TCP bytes sent" 	2788
scalar Inet.sas0.host25.inetUser 	"Total TCP packets sent" 	8
scalar Inet.sas0.host25.inetUser 	"Total TCP bytes received" 	10810
scalar Inet.sas0.host25.inetUser 	"Total TCP packets received" 	8
scalar Inet.sas0.host25.inetUser 	"Initiated TCP sessions" 	4
scalar Inet.sas0.host25.inetUser 	"Total UDP bytes sent" 	1224
scalar Inet.sas0.host25.inetUser 	"Total UDP packets sent" 	4
scalar Inet.sas0.host25.inetUser 	"Total UDP bytes received" 	4428
scalar Inet.sas0.host25.inetUser 	"Total UDP packets received" 	4
scalar Inet.sas0.host25.inetUser 	"Initiated UDP sessions" 	3
scalar Inet.sas0.host25.inetUser 	"Total ICMP bytes sent" 	100
scalar Inet.sas0.host25.inetUser 	"Total ICMP packets sent" 	1
scalar Inet.sas0.host25.inetUser 	"Total ICMP bytes received" 	100
scalar Inet.sas0.host25.inetUser 	"Total ICMP packets received" 	1
scalar Inet.sas0.host25.inetUser 	"Initiated ICMP sessions" 	1
scalar Inet.sas0.host25.networkLayer.arp 	"ARP requests sent" 	0
scalar Inet.sas0.host25.networkLayer.arp 	"ARP replies sent" 	0
scalar Inet.sas0.host25.networkLayer.arp 	"ARP resolutions" 	0
scalar Inet.sas0.host25.networkLayer.arp 	"failed ARP resolutions" 	0
scalar Inet.sas0.host25.ppp[0].queue 	"packets received by queue" 	57
scalar Inet.sas0.host25.ppp[0].queue 	"packets dropped by queue" 	0
scalar Inet.sas0.host26.inetUser 	"Total bytes sent" 	3702
scalar Inet.sas0.host26.inetUser 	"Total packets sent" 	14
scalar Inet.sas0.host26.inetUser 	"Total bytes received" 	39284
scalar Inet.sas0.host26.inetUser 	"Total packets received" 	14
scalar Inet.sas0.host26.inetUser 	"Initiated sessions" 	12
scalar Inet.sas0.host26.inetUser 	"Total TCP bytes sent" 	2262
scalar Inet.sas0.host26.inetUser 	"Total TCP packets sent" 	11
scalar Inet.sas0.host26.inetUser 	"Total TCP bytes received" 	38278
scalar Inet.sas0.host26.inetUser 	"Total TCP packets received" 	11
scalar Inet.sas0.host26.inetUser 	"Initiated TCP sessions" 	10
scalar Inet.sas0.host26.inetUser 	"Total UDP bytes sent" 	1440
scalar Inet.sas0.host26.inetUser 	"Total UDP packets sent" 	3
scalar Inet.sas0.host26.inetUser 	"Total UDP bytes received" 	1006
scalar Inet.sas0.host26.inetUser 	"Total UDP packets received" 	3
scalar Inet.sas0.host26.inetUser 	"Initiated UDP sessions" 	2
scalar Inet.sas0.host26.inetUser 	"Total ICMP bytes sent" 	0
scalar Inet.sas0.host26.inetUser 	"Total ICMP packets sent" 	0
scalar Inet.sas0.host26.inetUser 	"Total ICMP bytes received" 	0
scalar Inet.sas0.host26.inetUser 	"Total ICMP packets received" 	0
scalar Inet.sas0.host26.inetUser 	"Initiated ICMP sessions" 	0
scalar Inet.sas0.host26.networkLayer.arp 	"ARP requests sent" 	0
scalar Inet.sas0.host26.networkLayer.arp 	"ARP replies sent" 	0
scalar Inet.sas0.host26.networkLayer.arp 	"ARP resolutions" 	0
scalar Inet.sas0.host26.networkLayer.arp 	"failed ARP resolutions" 	0
scalar Inet.sas0.host26.ppp[0].queue 	"packets received by queue" 	107
scalar Inet.sas0.host26.ppp[0].queue 	"packets dropped by queue" 	0
scalar Inet.sas0.host_WormHost27.networkLayer.ip 	"Total packets" 	0
scalar Inet.sas0.host_WormHost27.networkLayer.ip 	"TCP packets" 	0
scalar Inet.sas0.host_WormHost27.networkLayer.ip 	"UDP packets" 	0
scalar Inet.sas0.host_WormHost27.networkLayer.ip 	"ICMP packets" 	0
scalar Inet.sas0.host_WormHost27.networkLayer.arp 	"ARP requests sent" 	0
scalar Inet.sas0.host_WormHost27.networkLayer.arp 	"ARP replies sent" 	0
scalar Inet.sas0.host_WormHost27.networkLayer.arp 	"ARP resolutions" 	0
scalar Inet.sas0.host_WormHost27.networkLayer.arp 	"failed ARP resolutions" 	0
scalar Inet.sas0.host_WormHost27.ppp[0].queue 	"packets received by queue" 	0
scalar Inet.sas0.host_WormHost27.ppp[0].queue 	"packets dropped by queue" 	0
scalar Inet.sas0.host_WormHost28.networkLayer.ip 	"Total packets" 	0
scalar Inet.sas0.host_WormHost28.networkLayer.ip 	"TCP packets" 	0
scalar Inet.sas0.host_WormHost28.networkLayer.ip 	"UDP packets" 	0
scalar Inet.sas0.host_WormHost28.networkLayer.ip 	"ICMP packets" 	0
scalar Inet.sas0.host_WormHost28.networkLayer.arp 	"ARP requests sent" 	0
scalar Inet.sas0.host_WormHost28.networkLayer.arp 	"ARP replies sent" 	0
scalar Inet.sas0.host_WormHost28.networkLayer.arp 	"ARP resolutions" 	0
scalar Inet.sas0.host_WormHost28.networkLayer.arp 	"failed ARP resolutions" 	0
scalar Inet.sas0.host_WormHost28.ppp[0].queue 	"packets received by queue" 	0
scalar Inet.sas0.host_WormHost28.ppp[0].queue 	"packets dropped by queue" 	0
scalar Inet.sas0.host29.inetUser 	"Total bytes sent" 	2622
scalar Inet.sas0.host29.inetUser 	"Total packets sent" 	8
scalar Inet.sas0.host29.inetUser 	"Total bytes received" 	7071
scalar Inet.sas0.host29.inetUser 	"Total packets received" 	8
scalar Inet.sas0.host29.inetUser 	"Initiated sessions" 	6
scalar Inet.sas0.host29.inetUser 	"Total TCP bytes sent" 	2558
scalar Inet.sas0.host29.inetUser 	"Total TCP packets sent" 	7
scalar Inet.sas0.host29.inetUser 	"Total TCP bytes received" 	7007
scalar Inet.sas0.host29.inetUser 	"Total TCP packets received" 	7
scalar Inet.sas0.host29.inetUser 	"Initiated TCP sessions" 	5
scalar Inet.sas0.host29.inetUser 	"Total UDP bytes sent" 	0
scalar Inet.sas0.host29.inetUser 	"Total UDP packets sent" 	0
scalar Inet.sas0.host29.inetUser 	"Total UDP bytes received" 	0
scalar Inet.sas0.host29.inetUser 	"Total UDP packets received" 	0
scalar Inet.sas0.host29.inetUser 	"Initiated UDP sessions" 	0
scalar Inet.sas0.host29.inetUser 	"Total ICMP bytes sent" 	64
scalar Inet.sas0.host29.inetUser 	"Total ICMP packets sent" 	1
scalar Inet.sas0.host29.inetUser 	"Total ICMP bytes received" 	64
scalar Inet.sas0.host29.inetUser 	"Total ICMP packets received" 	1
scalar Inet.sas0.host29.inetUser 	"Initiated ICMP sessions" 	1
scalar Inet.sas0.host29.networkLayer.arp 	"ARP requests sent" 	0
scalar Inet.sas0.host29.networkLayer.arp 	"ARP replies sent" 	0
scalar Inet.sas0.host29.networkLayer.arp 	"ARP resolutions" 	0
scalar Inet.sas0.host29.networkLayer.arp 	"failed ARP resolutions" 	0
scalar Inet.sas0.host29.ppp[0].queue 	"packets received by queue" 	37
scalar Inet.sas0.host29.ppp[0].queue 	"packets dropped by queue" 	0
scalar Inet.sas0.host30.inetUser 	"Total bytes sent" 	9258
scalar Inet.sas0.host30.inetUser 	"Total packets sent" 	9
scalar Inet.sas0.host30.inetUser 	"Total bytes received" 	9098
scalar Inet.sas0.host30.inetUser 	"Total packets received" 	9
scalar Inet.sas0.host30.inetUser 	"Initiated sessions" 	6
scalar Inet.sas0.host30.inetUser 	"Total TCP bytes sent" 	9258
scalar Inet.sas0.host30.inetUser 	"Total TCP packets sent" 	9
scalar Inet.sas0.host30.inetUser 	"Total TCP bytes received" 	9098
scalar Inet.sas0.host30.inetUser 	"Total TCP packets received" 	9
scalar Inet.sas0.host30.inetUser 	"Initiated TCP sessions" 	6
scalar Inet.sas0.host30.inetUser 	"Total UDP bytes sent" 	0
scalar Inet.sas0.host30.inetUser 	"Total UDP packets sent" 	0
scalar Inet.sas0.host30.inetUser 	"Total UDP bytes received" 	0
scalar Inet.sas0.host30.inetUser 	"Total UDP packets received" 	0
scalar Inet.sas0.host30.inetUser 	"Initiated UDP sessions" 	0
scalar Inet.sas0.host30.inetUser 	"Total ICMP bytes sent" 	0
scalar Inet.sas0.host30.inetUser 	"Total ICMP packets sent" 	0
scalar Inet.sas0.host30.inetUser 	"Total ICMP bytes received" 	0
scalar Inet.sas0.host30.inetUser 	"Total ICMP packets received" 	0
scalar Inet.sas0.host30.inetUser 	"Initiated ICMP sessions" 	0
scalar Inet.sas0.host30.networkLayer.arp 	"ARP requests sent" 	0
scalar Inet.sas0.host30.networkLayer.arp 	"ARP replies sent" 	0
scalar Inet.sas0.host30.networkLayer.arp 	"ARP resolutions" 	0
scalar Inet.sas0.host30.networkLayer.arp 	"failed ARP resolutions" 	0
scalar Inet.sas0.host30.ppp[0].queue 	"packets received by queue" 	56
scalar Inet.sas0.host30.ppp[0].queue 	"packets dropped by queue" 	0
scalar Inet.sas0.host_WormHost31.networkLayer.ip 	"Total packets" 	0
scalar Inet.sas0.host_WormHost31.networkLayer.ip 	"TCP packets" 	0
scalar Inet.sas0.host_WormHost31.networkLayer.ip 	"UDP packets" 	0
scalar Inet.sas0.host_WormHost31.networkLayer.ip 	"ICMP packets" 	0
scalar Inet.sas0.host_WormHost31.networkLayer.arp 	"ARP requests sent" 	0
scalar Inet.sas0.host_WormHost31.networkLayer.arp 	"ARP replies sent" 	0
scalar Inet.sas0.host_WormHost31.networkLayer.arp 	"ARP resolutions" 	0
scalar Inet.sas0.host_WormHost31.networkLayer.arp 	"failed ARP resolutions" 	0
scalar Inet.sas0.host_WormHost31.ppp[0].queue 	"packets received by queue" 	0
scalar Inet.sas0.host_WormHost31.ppp[0].queue 	"packets dropped by queue" 	0
scalar Inet.sas0.host32.inetUser 	"Total bytes sent" 	2053
scalar Inet.sas0.host32.inetUser 	"Total packets sent" 	10
scalar Inet.sas0.host32.inetUser 	"Total bytes received" 	11032
scalar Inet.sas0.host32.inetUser 	"Total packets received" 	10
scalar Inet.sas0.host32.inetUser 	"Initiated sessions" 	6
scalar Inet.sas0.host32.inetUser 	"Total TCP bytes sent" 	2053
scalar Inet.sas0.host32.inetUser 	"Total TCP packets sent" 	10
scalar Inet.sas0.host32.inetUser 	"Total TCP bytes received" 	11032
scalar Inet.sas0.host32.inetUser 	"Total TCP packets received" 	10
scalar Inet.sas0.host32.inetUser 	"Initiated TCP sessions" 	6
scalar Inet.sas0.host32.inetUser 	"Total UDP bytes sent" 	0
scalar Inet.sas0.host32.inetUser 	"Total UDP packets sent" 	0
scalar Inet.sas0.host32.inetUser 	"Total UDP bytes received" 	0
scalar Inet.sas0.host32.inetUser 	"Total UDP packets received" 	0
scalar Inet.sas0.host32.inetUser 	"Initiated UDP sessions" 	0
scalar Inet.sas0.host32.inetUser 	"Total ICMP bytes sent" 	0
scalar Inet.sas0.host32.inetUser 	"Total ICMP packets sent" 	0
scalar Inet.sas0.host32.inetUser 	"Total ICMP bytes received" 	0
scalar Inet.sas0.host32.inetUser 	"Total ICMP packets received" 	0
scalar Inet.sas0.host32.inetUser 	"Initiated ICMP sessions" 	0
scalar Inet.sas0.host32.networkLayer.arp 	"ARP requests sent" 	0
scalar Inet.sas0.host32.networkLayer.arp 	"ARP replies sent" 	0
scalar Inet.sas0.host32.networkLayer.arp 	"ARP resolutions" 	0
scalar Inet.sas0.host32.networkLayer.arp 	"failed ARP resolutions" 	0
scalar Inet.sas0.host32.ppp[0].queue 	"packets received by queue" 	52
scalar Inet.sas0.host32.ppp[0].queue 	"packets dropped by queue" 	0
scalar Inet.sas0.host33.inetUser 	"Total bytes sent" 	404
scalar Inet.sas0.host33.inetUser 	"Total packets sent" 	2
scalar Inet.sas0.host33.inetUser 	"Total bytes received" 	2001
scalar Inet.sas0.host33.inetUser 	"Total packets received" 	2
scalar Inet.sas0.host33.inetUser 	"Initiated sessions" 	2
scalar Inet.sas0.host33.inetUser 	"Total TCP bytes sent" 	404
scalar Inet.sas0.host33.inetUser 	"Total TCP packets sent" 	2
scalar Inet.sas0.host33.inetUser 	"Total TCP bytes received" 	2001
scalar Inet.sas0.host33.inetUser 	"Total TCP packets received" 	2
scalar Inet.sas0.host33.inetUser 	"Initiated TCP sessions" 	2
scalar Inet.sas0.host33.inetUser 	"Total UDP bytes sent" 	0
scalar Inet.sas0.host33.inetUser 	"Total UDP packets sent" 	0
scalar Inet.sas0.host33.inetUser 	"Total UDP bytes received" 	0
scalar Inet.sas0.host33.inetUser 	"Total UDP packets received" 	0
scalar Inet.sas0.host33.inetUser 	"Initiated UDP sessions" 	0
scalar Inet.sas0.host33.inetUser 	"Total ICMP bytes sent" 	0
scalar Inet.sas0.host33.inetUser 	"Total ICMP packets sent" 	0
scalar Inet.sas0.host33.inetUser 	"Total ICMP bytes received" 	0
scalar Inet.sas0.host33.inetUser 	"Total ICMP packets received" 	0
scalar Inet.sas0.host33.inetUser 	"Initiated ICMP sessions" 	0
scalar Inet.sas0.host33.networkLayer.arp 	"ARP requests sent" 	0
scalar Inet.sas0.host33.networkLayer.arp 	"ARP replies sent" 	0
scalar Inet.sas0.host33.networkLayer.arp 	"ARP resolutions" 	0
scalar Inet.sas0.host33.networkLayer.arp 	"failed ARP resolutions" 	0
scalar Inet.sas0.host33.ppp[0].queue 	"packets received by queue" 	16
scalar Inet.sas0.host33.ppp[0].queue 	"packets dropped by queue" 	0
scalar Inet.sas0.host34.inetUser 	"Total bytes sent" 	16958
scalar Inet.sas0.host34.inetUser 	"Total packets sent" 	5
scalar Inet.sas0.host34.inetUser 	"Total bytes received" 	3146
scalar Inet.sas0.host34.inetUser 	"Total packets received" 	5
scalar Inet.sas0.host34.inetUser 	"Initiated sessions" 	3
scalar Inet.sas0.host34.inetUser 	"Total TCP bytes sent" 	16813
scalar Inet.sas0.host34.inetUser 	"Total TCP packets sent" 	3
scalar Inet.sas0.host34.inetUser 	"Total TCP bytes received" 	3001
scalar Inet.sas0.host34.inetUser 	"Total TCP packets received" 	3
scalar Inet.sas0.host34.inetUser 	"Initiated TCP sessions" 	2
scalar Inet.sas0.host34.inetUser 	"Total UDP bytes sent" 	0
scalar Inet.sas0.host34.inetUser 	"Total UDP packets sent" 	0
scalar Inet.sas0.host34.inetUser 	"Total UDP bytes received" 	0
scalar Inet.sas0.host34.inetUser 	"Total UDP packets received" 	0
scalar Inet.sas0.host34.inetUser 	"Initiated UDP sessions" 	0
scalar Inet.sas0.host34.inetUser 	"Total ICMP bytes sent" 	145
scalar Inet.sas0.host34.inetUser 	"Total ICMP packets sent" 	2
scalar Inet.sas0.host34.inetUser 	"Total ICMP bytes received" 	145
scalar Inet.sas0.host34.inetUser 	"Total ICMP packets received" 	2
scalar Inet.sas0.host34.inetUser 	"Initiated ICMP sessions" 	1
scalar Inet.sas0.host34.networkLayer.arp 	"ARP requests sent" 	0
scalar Inet.sas0.host34.networkLayer.arp 	"ARP replies sent" 	0
scalar Inet.sas0.host34.networkLayer.arp 	"ARP resolutions" 	0
scalar Inet.sas0.host34.networkLayer.arp 	"failed ARP resolutions" 	0
scalar Inet.sas0.host34.ppp[0].queue 	"packets received by queue" 	35
scalar Inet.sas0.host34.ppp[0].queue 	"packets dropped by queue" 	0
scalar Inet.sas0.host35.inetUser 	"Total bytes sent" 	2135
scalar Inet.sas0.host35.inetUser 	"Total packets sent" 	8
scalar Inet.sas0.host35.inetUser 	"Total bytes received" 	6999
scalar Inet.sas0.host35.inetUser 	"Total packets received" 	8
scalar Inet.sas0.host35.inetUser 	"Initiated sessions" 	5
scalar Inet.sas0.host35.inetUser 	"Total TCP bytes sent" 	1535
scalar Inet.sas0.host35.inetUser 	"Total TCP packets sent" 	6
scalar Inet.sas0.host35.inetUser 	"Total TCP bytes received" 	6049
scalar Inet.sas0.host35.inetUser 	"Total TCP packets received" 	6
scalar Inet.sas0.host35.inetUser 	"Initiated TCP sessions" 	4
scalar Inet.sas0.host35.inetUser 	"Total UDP bytes sent" 	600
scalar Inet.sas0.host35.inetUser 	"Total UDP packets sent" 	2
scalar Inet.sas0.host35.inetUser 	"Total UDP bytes received" 	950
scalar Inet.sas0.host35.inetUser 	"Total UDP packets received" 	2
scalar Inet.sas0.host35.inetUser 	"Initiated UDP sessions" 	1
scalar Inet.sas0.host35.inetUser 	"Total ICMP bytes sent" 	0
scalar Inet.sas0.host35.inetUser 	"Total ICMP packets sent" 	0
scalar Inet.sas0.host35.inetUser 	"Total ICMP bytes received" 	0
scalar Inet.sas0.host35.inetUser 	"Total ICMP packets received" 	0
scalar Inet.sas0.host35.inetUser 	"Initiated ICMP sessions" 	0
scalar Inet.sas0.host35.networkLayer.arp 	"ARP requests sent" 	0
scalar Inet.sas0.host35.networkLayer.arp 	"ARP replies sent" 	0
scalar Inet.sas0.host35.networkLayer.arp 	"ARP resolutions" 	0
scalar Inet.sas0.host35.networkLayer.arp 	"failed ARP resolutions" 	0
scalar Inet.sas0.host35.ppp[0].queue 	"packets received by queue" 	40
scalar Inet.sas0.host35.ppp[0].queue 	"packets dropped by queue" 	0
scalar Inet.sas0.host36.inetUser 	"Total bytes sent" 	4348
scalar Inet.sas0.host36.inetUser 	"Total packets sent" 	17
scalar Inet.sas0.host36.inetUser 	"Total bytes received" 	15447
scalar Inet.sas0.host36.inetUser 	"Total packets received" 	17
scalar Inet.sas0.host36.inetUser 	"Initiated sessions" 	12
scalar Inet.sas0.host36.inetUser 	"Total TCP bytes sent" 	3448
scalar Inet.sas0.host36.inetUser 	"Total TCP packets sent" 	14
scalar Inet.sas0.host36.inetUser 	"Total TCP bytes received" 	14517
scalar Inet.sas0.host36.inetUser 	"Total TCP packets received" 	14
scalar Inet.sas0.host36.inetUser 	"Initiated TCP sessions" 	10
scalar Inet.sas0.host36.inetUser 	"Total UDP bytes sent" 	900
scalar Inet.sas0.host36.inetUser 	"Total UDP packets sent" 	3
scalar Inet.sas0.host36.inetUser 	"Total UDP bytes received" 	930
scalar Inet.sas0.host36.inetUser 	"Total UDP packets received" 	3
scalar Inet.sas0.host36.inetUser 	"Initiated UDP sessions" 	2
scalar Inet.sas0.host36.inetUser 	"Total ICMP bytes sent" 	0
scalar Inet.sas0.host36.inetUser 	"Total ICMP packets sent" 	0
scalar Inet.sas0.host36.inetUser 	"Total ICMP bytes received" 	0
scalar Inet.sas0.host36.inetUser 	"Total ICMP packets received" 	0
scalar Inet.sas0.host36.inetUser 	"Initiated ICMP sessions" 	0
scalar Inet.sas0.host36.networkLayer.arp 	"ARP requests sent" 	0
scalar Inet.sas0.host36.networkLayer.arp 	"ARP replies sent" 	0
scalar Inet.sas0.host36.networkLayer.arp 	"ARP resolutions" 	0
scalar Inet.sas0.host36.networkLayer.arp 	"failed ARP resolutions" 	0
scalar Inet.sas0.host36.ppp[0].queue 	"packets received by queue" 	89
scalar Inet.sas0.host36.ppp[0].queue 	"packets dropped by queue" 	0
scalar Inet.sas0.host37.inetUser 	"Total bytes sent" 	2159
scalar Inet.sas0.host37.inetUser 	"Total packets sent" 	9
scalar Inet.sas0.host37.inetUser 	"Total bytes received" 	9003
scalar Inet.sas0.host37.inetUser 	"Total packets received" 	9
scalar Inet.sas0.host37.inetUser 	"Initiated sessions" 	6
scalar Inet.sas0.host37.inetUser 	"Total TCP bytes sent" 	1559
scalar Inet.sas0.host37.inetUser 	"Total TCP packets sent" 	7
scalar Inet.sas0.host37.inetUser 	"Total TCP bytes received" 	8403
scalar Inet.sas0.host37.inetUser 	"Total TCP packets received" 	7
scalar Inet.sas0.host37.inetUser 	"Initiated TCP sessions" 	5
scalar Inet.sas0.host37.inetUser 	"Total UDP bytes sent" 	600
scalar Inet.sas0.host37.inetUser 	"Total UDP packets sent" 	2
scalar Inet.sas0.host37.inetUser 	"Total UDP bytes received" 	600
scalar Inet.sas0.host37.inetUser 	"Total UDP packets received" 	2
scalar Inet.sas0.host37.inetUser 	"Initiated UDP sessions" 	1
scalar Inet.sas0.host37.inetUser 	"Total ICMP bytes sent" 	0
scalar Inet.sas0.host37.inetUser 	"Total ICMP packets sent" 	0
scalar Inet.sas0.host37.inetUser 	"Total ICMP bytes received" 	0
scalar Inet.sas0.host37.inetUser 	"Total ICMP packets received" 	0
scalar Inet.sas0.host37.inetUser 	"Initiated ICMP sessions" 	0
scalar Inet.sas0.host37.networkLayer.arp 	"ARP requests sent" 	0
scalar Inet.sas0.host37.networkLayer.arp 	"ARP replies sent" 	0
scalar Inet.sas0.host37.networkLayer.arp 	"ARP resolutions" 	0
scalar Inet.sas0.host37.networkLayer.arp 	"failed ARP resolutions" 	0
scalar Inet.sas0.host37.ppp[0].queue 	"packets received by queue" 	53
scalar Inet.sas0.host37.ppp[0].queue 	"packets dropped by queue" 	0
scalar Inet.sas0.host_WormHost38.networkLayer.ip 	"Total packets" 	0
scalar Inet.sas0.host_WormHost38.networkLayer.ip 	"TCP packets" 	0
scalar Inet.sas0.host_WormHost38.networkLayer.ip 	"UDP packets" 	0
scalar Inet.sas0.host_WormHost38.networkLayer.ip 	"ICMP packets" 	0
scalar Inet.sas0.host_WormHost38.networkLayer.arp 	"ARP requests sent" 	0
scalar Inet.sas0.host_WormHost38.networkLayer.arp 	"ARP replies sent" 	0
scalar Inet.sas0.host_WormHost38.networkLayer.arp 	"ARP resolutions" 	0
scalar Inet.sas0.host_WormHost38.networkLayer.arp 	"failed ARP resolutions" 	0
scalar Inet.sas0.host_WormHost38.ppp[0].queue 	"packets received by queue" 	0
scalar Inet.sas0.host_WormHost38.ppp[0].queue 	"packets dropped by queue" 	0
scalar Inet.sas0.host39.inetUser 	"Total bytes sent" 	15558
scalar Inet.sas0.host39.inetUser 	"Total packets sent" 	10
scalar Inet.sas0.host39.inetUser 	"Total bytes received" 	37640
scalar Inet.sas0.host39.inetUser 	"Total packets received" 	7
scalar Inet.sas0.host39.inetUser 	"Initiated sessions" 	5
scalar Inet.sas0.host39.inetUser 	"Total TCP bytes sent" 	11470
scalar Inet.sas0.host39.inetUser 	"Total TCP packets sent" 	6
scalar Inet.sas0.host39.inetUser 	"Total TCP bytes received" 	37301
scalar Inet.sas0.host39.inetUser 	"Total TCP packets received" 	6
scalar Inet.sas0.host39.inetUser 	"Initiated TCP sessions" 	4
scalar Inet.sas0.host39.inetUser 	"Total UDP bytes sent" 	4088
scalar Inet.sas0.host39.inetUser 	"Total UDP packets sent" 	4
scalar Inet.sas0.host39.inetUser 	"Total UDP bytes received" 	339
scalar Inet.sas0.host39.inetUser 	"Total UDP packets received" 	1
scalar Inet.sas0.host39.inetUser 	"Initiated UDP sessions" 	1
scalar Inet.sas0.host39.inetUser 	"Total ICMP bytes sent" 	0
scalar Inet.sas0.host39.inetUser 	"Total ICMP packets sent" 	0
scalar Inet.sas0.host39.inetUser 	"Total ICMP bytes received" 	0
scalar Inet.sas0.host39.inetUser 	"Total ICMP packets received" 	0
scalar Inet.sas0.host39.inetUser 	"Initiated ICMP sessions" 	0
scalar Inet.sas0.host39.networkLayer.arp 	"ARP requests sent" 	0
scalar Inet.sas0.host39.networkLayer.arp 	"ARP replies sent" 	0
scalar Inet.sas0.host39.networkLayer.arp 	"ARP resolutions" 	0
scalar Inet.sas0.host39.networkLayer.arp 	"failed ARP resolutions" 	0
scalar Inet.sas0.host39.ppp[0].queue 	"packets received by queue" 	140
scalar Inet.sas0.host39.ppp[0].queue 	"packets dropped by queue" 	0
scalar Inet.sas0.host_WebServer40.networkLayer.arp 	"ARP requests sent" 	0
scalar Inet.sas0.host_WebServer40.networkLayer.arp 	"ARP replies sent" 	0
scalar Inet.sas0.host_WebServer40.networkLayer.arp 	"ARP resolutions" 	0
scalar Inet.sas0.host_WebServer40.networkLayer.arp 	"failed ARP resolutions" 	0
scalar Inet.sas0.host_WebServer40.ppp[0].queue 	"packets received by queue" 	1246
scalar Inet.sas0.host_WebServer40.ppp[0].queue 	"packets dropped by queue" 	0
scalar Inet.sas0.host41.inetUser 	"Total bytes sent" 	2616
scalar Inet.sas0.host41.inetUser 	"Total packets sent" 	9
scalar Inet.sas0.host41.inetUser 	"Total bytes received" 	22191
scalar Inet.sas0.host41.inetUser 	"Total packets received" 	9
scalar Inet.sas0.host41.inetUser 	"Initiated sessions" 	6
scalar Inet.sas0.host41.inetUser 	"Total TCP bytes sent" 	1410
scalar Inet.sas0.host41.inetUser 	"Total TCP packets sent" 	5
scalar Inet.sas0.host41.inetUser 	"Total TCP bytes received" 	13351
scalar Inet.sas0.host41.inetUser 	"Total TCP packets received" 	5
scalar Inet.sas0.host41.inetUser 	"Initiated TCP sessions" 	4
scalar Inet.sas0.host41.inetUser 	"Total UDP bytes sent" 	1206
scalar Inet.sas0.host41.inetUser 	"Total UDP packets sent" 	4
scalar Inet.sas0.host41.inetUser 	"Total UDP bytes received" 	8840
scalar Inet.sas0.host41.inetUser 	"Total UDP packets received" 	4
scalar Inet.sas0.host41.inetUser 	"Initiated UDP sessions" 	2
scalar Inet.sas0.host41.inetUser 	"Total ICMP bytes sent" 	0
scalar Inet.sas0.host41.inetUser 	"Total ICMP packets sent" 	0
scalar Inet.sas0.host41.inetUser 	"Total ICMP bytes received" 	0
scalar Inet.sas0.host41.inetUser 	"Total ICMP packets received" 	0
scalar Inet.sas0.host41.inetUser 	"Initiated ICMP sessions" 	0
scalar Inet.sas0.host41.networkLayer.arp 	"ARP requests sent" 	0
scalar Inet.sas0.host41.networkLayer.arp 	"ARP replies sent" 	0
scalar Inet.sas0.host41.networkLayer.arp 	"ARP resolutions" 	0
scalar Inet.sas0.host41.networkLayer.arp 	"failed ARP resolutions" 	0
scalar Inet.sas0.host41.ppp[0].queue 	"packets received by queue" 	45
scalar Inet.sas0.host41.ppp[0].queue 	"packets dropped by queue" 	0
scalar Inet.sas0.host42.inetUser 	"Total bytes sent" 	2026
scalar Inet.sas0.host42.inetUser 	"Total packets sent" 	9
scalar Inet.sas0.host42.inetUser 	"Total bytes received" 	8167
scalar Inet.sas0.host42.inetUser 	"Total packets received" 	9
scalar Inet.sas0.host42.inetUser 	"Initiated sessions" 	5
scalar Inet.sas0.host42.inetUser 	"Total TCP bytes sent" 	1424
scalar Inet.sas0.host42.inetUser 	"Total TCP packets sent" 	7
scalar Inet.sas0.host42.inetUser 	"Total TCP bytes received" 	7566
scalar Inet.sas0.host42.inetUser 	"Total TCP packets received" 	7
scalar Inet.sas0.host42.inetUser 	"Initiated TCP sessions" 	4
scalar Inet.sas0.host42.inetUser 	"Total UDP bytes sent" 	602
scalar Inet.sas0.host42.inetUser 	"Total UDP packets sent" 	2
scalar Inet.sas0.host42.inetUser 	"Total UDP bytes received" 	601
scalar Inet.sas0.host42.inetUser 	"Total UDP packets received" 	2
scalar Inet.sas0.host42.inetUser 	"Initiated UDP sessions" 	1
scalar Inet.sas0.host42.inetUser 	"Total ICMP bytes sent" 	0
scalar Inet.sas0.host42.inetUser 	"Total ICMP packets sent" 	0
scalar Inet.sas0.host42.inetUser 	"Total ICMP bytes received" 	0
scalar Inet.sas0.host42.inetUser 	"Total ICMP packets received" 	0
scalar Inet.sas0.host42.inetUser 	"Initiated ICMP sessions" 	0
scalar Inet.sas0.host42.networkLayer.arp 	"ARP requests sent" 	0
scalar Inet.sas0.host42.networkLayer.arp 	"ARP replies sent" 	0
scalar Inet.sas0.host42.networkLayer.arp 	"ARP resolutions" 	0
scalar Inet.sas0.host42.networkLayer.arp 	"failed ARP resolutions" 	0
scalar Inet.sas0.host42.ppp[0].queue 	"packets received by queue" 	45
scalar Inet.sas0.host42.ppp[0].queue 	"packets dropped by queue" 	0
scalar Inet.sas0.host43.inetUser 	"Total bytes sent" 	2588
scalar Inet.sas0.host43.inetUser 	"Total packets sent" 	12
scalar Inet.sas0.host43.inetUser 	"Total bytes received" 	71777
scalar Inet.sas0.host43.inetUser 	"Total packets received" 	12
scalar Inet.sas0.host43.inetUser 	"Initiated sessions" 	9
scalar Inet.sas0.host43.inetUser 	"Total TCP bytes sent" 	2588
scalar Inet.sas0.host43.inetUser 	"Total TCP packets sent" 	12
scalar Inet.sas0.host43.inetUser 	"Total TCP bytes received" 	71777
scalar Inet.sas0.host43.inetUser 	"Total TCP packets received" 	12
scalar Inet.sas0.host43.inetUser 	"Initiated TCP sessions" 	9
scalar Inet.sas0.host43.inetUser 	"Total UDP bytes sent" 	0
scalar Inet.sas0.host43.inetUser 	"Total UDP packets sent" 	0
scalar Inet.sas0.host43.inetUser 	"Total UDP bytes received" 	0
scalar Inet.sas0.host43.inetUser 	"Total UDP packets received" 	0
scalar Inet.sas0.host43.inetUser 	"Initiated UDP sessions" 	0
scalar Inet.sas0.host43.inetUser 	"Total ICMP bytes sent" 	0
scalar Inet.sas0.host43.inetUser 	"Total ICMP packets sent" 	0
scalar Inet.sas0.host43.inetUser 	"Total ICMP bytes received" 	0
scalar Inet.sas0.host43.inetUser 	"Total ICMP packets received" 	0
scalar Inet.sas0.host43.inetUser 	"Initiated ICMP sessions" 	0
scalar Inet.sas0.host43.networkLayer.arp 	"ARP requests sent" 	0
scalar Inet.sas0.host43.networkLayer.arp 	"ARP replies sent" 	0
scalar Inet.sas0.host43.networkLayer.arp 	"ARP resolutions" 	0
scalar Inet.sas0.host43.networkLayer.arp 	"failed ARP resolutions" 	0
scalar Inet.sas0.host43.ppp[0].queue 	"packets received by queue" 	165
scalar Inet.sas0.host43.ppp[0].queue 	"packets dropped by queue" 	0
scalar Inet.sas0.host44.inetUser 	"Total bytes sent" 	2806
scalar Inet.sas0.host44.inetUser 	"Total packets sent" 	13
scalar Inet.sas0.host44.inetUser 	"Total bytes received" 	10479
scalar Inet.sas0.host44.inetUser 	"Total packets received" 	13
scalar Inet.sas0.host44.inetUser 	"Initiated sessions" 	11
scalar Inet.sas0.host44.inetUser 	"Total TCP bytes sent" 	1974
scalar Inet.sas0.host44.inetUser 	"Total TCP packets sent" 	9
scalar Inet.sas0.host44.inetUser 	"Total TCP bytes received" 	9526
scalar Inet.sas0.host44.inetUser 	"Total TCP packets received" 	9
scalar Inet.sas0.host44.inetUser 	"Initiated TCP sessions" 	7
scalar Inet.sas0.host44.inetUser 	"Total UDP bytes sent" 	670
scalar Inet.sas0.host44.inetUser 	"Total UDP packets sent" 	2
scalar Inet.sas0.host44.inetUser 	"Total UDP bytes received" 	791
scalar Inet.sas0.host44.inetUser 	"Total UDP packets received" 	2
scalar Inet.sas0.host44.inetUser 	"Initiated UDP sessions" 	2
scalar Inet.sas0.host44.inetUser 	"Total ICMP bytes sent" 	162
scalar Inet.sas0.host44.inetUser 	"Total ICMP packets sent" 	2
scalar Inet.sas0.host44.inetUser 	"Total ICMP bytes received" 	162
scalar Inet.sas0.host44.inetUser 	"Total ICMP packets received" 	2
scalar Inet.sas0.host44.inetUser 	"Initiated ICMP sessions" 	2
scalar Inet.sas0.host44.networkLayer.arp 	"ARP requests sent" 	0
scalar Inet.sas0.host44.networkLayer.arp 	"ARP replies sent" 	0
scalar Inet.sas0.host44.networkLayer.arp 	"ARP resolutions" 	0
scalar Inet.sas0.host44.networkLayer.arp 	"failed ARP resolutions" 	0
scalar Inet.sas0.host44.ppp[0].queue 	"packets received by queue" 	123
scalar Inet.sas0.host44.ppp[0].queue 	"packets dropped by queue" 	0
scalar Inet.sas0.host_WormHost45.networkLayer.ip 	"Total packets" 	0
scalar Inet.sas0.host_WormHost45.networkLayer.ip 	"TCP packets" 	0
scalar Inet.sas0.host_WormHost45.networkLayer.ip 	"UDP packets" 	0
scalar Inet.sas0.host_WormHost45.networkLayer.ip 	"ICMP packets" 	0
scalar Inet.sas0.host_WormHost45.networkLayer.arp 	"ARP requests sent" 	0
scalar Inet.sas0.host_WormHost45.networkLayer.arp 	"ARP replies sent" 	0
scalar Inet.sas0.host_WormHost45.networkLayer.arp 	"ARP resolutions" 	0
scalar Inet.sas0.host_WormHost45.networkLayer.arp 	"failed ARP resolutions" 	0
scalar Inet.sas0.host_WormHost45.ppp[0].queue 	"packets received by queue" 	0
scalar Inet.sas0.host_WormHost45.ppp[0].queue 	"packets dropped by queue" 	0
scalar Inet.sas0.host46.inetUser 	"Total bytes sent" 	38548
scalar Inet.sas0.host46.inetUser 	"Total packets sent" 	11
scalar Inet.sas0.host46.inetUser 	"Total bytes received" 	10415
scalar Inet.sas0.host46.inetUser 	"Total packets received" 	11
scalar Inet.sas0.host46.inetUser 	"Initiated sessions" 	10
scalar Inet.sas0.host46.inetUser 	"Total TCP bytes sent" 	38248
scalar Inet.sas0.host46.inetUser 	"Total TCP packets sent" 	10
scalar Inet.sas0.host46.inetUser 	"Total TCP bytes received" 	10081
scalar Inet.sas0.host46.inetUser 	"Total TCP packets received" 	10
scalar Inet.sas0.host46.inetUser 	"Initiated TCP sessions" 	9
scalar Inet.sas0.host46.inetUser 	"Total UDP bytes sent" 	300
scalar Inet.sas0.host46.inetUser 	"Total UDP packets sent" 	1
scalar Inet.sas0.host46.inetUser 	"Total UDP bytes received" 	334
scalar Inet.sas0.host46.inetUser 	"Total UDP packets received" 	1
scalar Inet.sas0.host46.inetUser 	"Initiated UDP sessions" 	1
scalar Inet.sas0.host46.inetUser 	"Total ICMP bytes sent" 	0
scalar Inet.sas0.host46.inetUser 	"Total ICMP packets sent" 	0
scalar Inet.sas0.host46.inetUser 	"Total ICMP bytes received" 	0
scalar Inet.sas0.host46.inetUser 	"Total ICMP packets received" 	0
scalar Inet.sas0.host46.inetUser 	"Initiated ICMP sessions" 	0
scalar Inet.sas0.host46.networkLayer.arp 	"ARP requests sent" 	0
scalar Inet.sas0.host46.networkLayer.arp 	"ARP replies sent" 	0
scalar Inet.sas0.host46.networkLayer.arp 	"ARP resolutions" 	0
scalar Inet.sas0.host46.networkLayer.arp 	"failed ARP resolutions" 	0
scalar Inet.sas0.host46.ppp[0].queue 	"packets received by queue" 	111
scalar Inet.sas0.host46.ppp[0].queue 	"packets dropped by queue" 	0
scalar Inet.sas0.host_WebServer47.networkLayer.arp 	"ARP requests sent" 	0
scalar Inet.sas0.host_WebServer47.networkLayer.arp 	"ARP replies sent" 	0
scalar Inet.sas0.host_WebServer47.networkLayer.arp 	"ARP resolutions" 	0
scalar Inet.sas0.host_WebServer47.networkLayer.arp 	"failed ARP resolutions" 	0
scalar Inet.sas0.host_WebServer47.ppp[0].queue 	"packets received by queue" 	1018
scalar Inet.sas0.host_WebServer47.ppp[0].queue 	"packets dropped by queue" 	0
scalar Inet.sas0.host48.inetUser 	"Total bytes sent" 	8690
scalar Inet.sas0.host48.inetUser 	"Total packets sent" 	10
scalar Inet.sas0.host48.inetUser 	"Total bytes received" 	10175
scalar Inet.sas0.host48.inetUser 	"Total packets received" 	10
scalar Inet.sas0.host48.inetUser 	"Initiated sessions" 	7
scalar Inet.sas0.host48.inetUser 	"Total TCP bytes sent" 	8690
scalar Inet.sas0.host48.inetUser 	"Total TCP packets sent" 	10
scalar Inet.sas0.host48.inetUser 	"Total TCP bytes received" 	10175
scalar Inet.sas0.host48.inetUser 	"Total TCP packets received" 	10
scalar Inet.sas0.host48.inetUser 	"Initiated TCP sessions" 	7
scalar Inet.sas0.host48.inetUser 	"Total UDP bytes sent" 	0
scalar Inet.sas0.host48.inetUser 	"Total UDP packets sent" 	0
scalar Inet.sas0.host48.inetUser 	"Total UDP bytes received" 	0
scalar Inet.sas0.host48.inetUser 	"Total UDP packets received" 	0
scalar Inet.sas0.host48.inetUser 	"Initiated UDP sessions" 	0
scalar Inet.sas0.host48.inetUser 	"Total ICMP bytes sent" 	0
scalar Inet.sas0.host48.inetUser 	"Total ICMP packets sent" 	0
scalar Inet.sas0.host48.inetUser 	"Total ICMP bytes received" 	0
scalar Inet.sas0.host48.inetUser 	"Total ICMP packets received" 	0
scalar Inet.sas0.host48.inetUser 	"Initiated ICMP sessions" 	0
scalar Inet.sas0.host48.networkLayer.arp 	"ARP requests sent" 	0
scalar Inet.sas0.host48.networkLayer.arp 	"ARP replies sent" 	0
scalar Inet.sas0.host48.networkLayer.arp 	"ARP resolutions" 	0
scalar Inet.sas0.host48.networkLayer.arp 	"failed ARP resolutions" 	0
scalar Inet.sas0.host48.ppp[0].queue 	"packets received by queue" 	196
scalar Inet.sas0.host48.ppp[0].queue 	"packets dropped by queue" 	0
scalar Inet.sas0.host_WebServer49.networkLayer.arp 	"ARP requests sent" 	0
scalar Inet.sas0.host_WebServer49.networkLayer.arp 	"ARP replies sent" 	0
scalar Inet.sas0.host_WebServer49.networkLayer.arp 	"ARP resolutions" 	0
scalar Inet.sas0.host_WebServer49.networkLayer.arp 	"failed ARP resolutions" 	0
scalar Inet.sas0.host_WebServer49.ppp[0].queue 	"packets received by queue" 	1505
scalar Inet.sas0.host_WebServer49.ppp[0].queue 	"packets dropped by queue" 	0
scalar Inet.sas0.host50.inetUser 	"Total bytes sent" 	2037
scalar Inet.sas0.host50.inetUser 	"Total packets sent" 	9
scalar Inet.sas0.host50.inetUser 	"Total bytes received" 	8370
scalar Inet.sas0.host50.inetUser 	"Total packets received" 	9
scalar Inet.sas0.host50.inetUser 	"Initiated sessions" 	8
scalar Inet.sas0.host50.inetUser 	"Total TCP bytes sent" 	1736
scalar Inet.sas0.host50.inetUser 	"Total TCP packets sent" 	8
scalar Inet.sas0.host50.inetUser 	"Total TCP bytes received" 	8067
scalar Inet.sas0.host50.inetUser 	"Total TCP packets received" 	8
scalar Inet.sas0.host50.inetUser 	"Initiated TCP sessions" 	7
scalar Inet.sas0.host50.inetUser 	"Total UDP bytes sent" 	301
scalar Inet.sas0.host50.inetUser 	"Total UDP packets sent" 	1
scalar Inet.sas0.host50.inetUser 	"Total UDP bytes received" 	303
scalar Inet.sas0.host50.inetUser 	"Total UDP packets received" 	1
scalar Inet.sas0.host50.inetUser 	"Initiated UDP sessions" 	1
scalar Inet.sas0.host50.inetUser 	"Total ICMP bytes sent" 	0
scalar Inet.sas0.host50.inetUser 	"Total ICMP packets sent" 	0
scalar Inet.sas0.host50.inetUser 	"Total ICMP bytes received" 	0
scalar Inet.sas0.host50.inetUser 	"Total ICMP packets received" 	0
scalar Inet.sas0.host50.inetUser 	"Initiated ICMP sessions" 	0
scalar Inet.sas0.host50.networkLayer.arp 	"ARP requests sent" 	0
scalar Inet.sas0.host50.networkLayer.arp 	"ARP replies sent" 	0
scalar Inet.sas0.host50.networkLayer.arp 	"ARP resolutions" 	0
scalar Inet.sas0.host50.networkLayer.arp 	"failed ARP resolutions" 	0
scalar Inet.sas0.host50.ppp[0].queue 	"packets received by queue" 	50
scalar Inet.sas0.host50.ppp[0].queue 	"packets dropped by queue" 	0
scalar Inet.sas0.host_WormHost51.networkLayer.ip 	"Total packets" 	0
scalar Inet.sas0.host_WormHost51.networkLayer.ip 	"TCP packets" 	0
scalar Inet.sas0.host_WormHost51.networkLayer.ip 	"UDP packets" 	0
scalar Inet.sas0.host_WormHost51.networkLayer.ip 	"ICMP packets" 	0
scalar Inet.sas0.host_WormHost51.networkLayer.arp 	"ARP requests sent" 	0
scalar Inet.sas0.host_WormHost51.networkLayer.arp 	"ARP replies sent" 	0
scalar Inet.sas0.host_WormHost51.networkLayer.arp 	"ARP resolutions" 	0
scalar Inet.sas0.host_WormHost51.networkLayer.arp 	"failed ARP resolutions" 	0
scalar Inet.sas0.host_WormHost51.ppp[0].queue 	"packets received by queue" 	0
scalar Inet.sas0.host_WormHost51.ppp[0].queue 	"packets dropped by queue" 	0
scalar Inet.sas0.host52.inetUser 	"Total bytes sent" 	1405
scalar Inet.sas0.host52.inetUser 	"Total packets sent" 	5
scalar Inet.sas0.host52.inetUser 	"Total bytes received" 	4328
scalar Inet.sas0.host52.inetUser 	"Total packets received" 	5
scalar Inet.sas0.host52.inetUser 	"Initiated sessions" 	4
scalar Inet.sas0.host52.inetUser 	"Total TCP bytes sent" 	1105
scalar Inet.sas0.host52.inetUser 	"Total TCP packets sent" 	4
scalar Inet.sas0.host52.inetUser 	"Total TCP bytes received" 	4001
scalar Inet.sas0.host52.inetUser 	"Total TCP packets received" 	4
scalar Inet.sas0.host52.inetUser 	"Initiated TCP sessions" 	3
scalar Inet.sas0.host52.inetUser 	"Total UDP bytes sent" 	300
scalar Inet.sas0.host52.inetUser 	"Total UDP packets sent" 	1
scalar Inet.sas0.host52.inetUser 	"Total UDP bytes received" 	327
scalar Inet.sas0.host52.inetUser 	"Total UDP packets received" 	1
scalar Inet.sas0.host52.inetUser 	"Initiated UDP sessions" 	1
scalar Inet.sas0.host52.inetUser 	"Total ICMP bytes sent" 	0
scalar Inet.sas0.host52.inetUser 	"Total ICMP packets sent" 	0
scalar Inet.sas0.host52.inetUser 	"Total ICMP bytes received" 	0
scalar Inet.sas0.host52.inetUser 	"Total ICMP packets received" 	0
scalar Inet.sas0.host52.inetUser 	"Initiated ICMP sessions" 	0
scalar Inet.sas0.host52.networkLayer.arp 	"ARP requests sent" 	0
scalar Inet.sas0.host52.networkLayer.arp 	"ARP replies sent" 	0
scalar Inet.sas0.host52.networkLayer.arp 	"ARP resolutions" 	0
scalar Inet.sas0.host52.networkLayer.arp 	"failed ARP resolutions" 	0
scalar Inet.sas0.host52.ppp[0].queue 	"packets received by queue" 	41
scalar Inet.sas0.host52.ppp[0].queue 	"packets dropped by queue" 	0
scalar Inet.sas0.host53.inetUser 	"Total bytes sent" 	3957
scalar Inet.sas0.host53.inetUser 	"Total packets sent" 	11
scalar Inet.sas0.host53.inetUser 	"Total bytes received" 	10458
scalar Inet.sas0.host53.inetUser 	"Total packets received" 	11
scalar Inet.sas0.host53.inetUser 	"Initiated sessions" 	9
scalar Inet.sas0.host53.inetUser 	"Total TCP bytes sent" 	3333
scalar Inet.sas0.host53.inetUser 	"Total TCP packets sent" 	9
scalar Inet.sas0.host53.inetUser 	"Total TCP bytes received" 	9858
scalar Inet.sas0.host53.inetUser 	"Total TCP packets received" 	9
scalar Inet.sas0.host53.inetUser 	"Initiated TCP sessions" 	7
scalar Inet.sas0.host53.inetUser 	"Total UDP bytes sent" 	624
scalar Inet.sas0.host53.inetUser 	"Total UDP packets sent" 	2
scalar Inet.sas0.host53.inetUser 	"Total UDP bytes received" 	600
scalar Inet.sas0.host53.inetUser 	"Total UDP packets received" 	2
scalar Inet.sas0.host53.inetUser 	"Initiated UDP sessions" 	2
scalar Inet.sas0.host53.inetUser 	"Total ICMP bytes sent" 	0
scalar Inet.sas0.host53.inetUser 	"Total ICMP packets sent" 	0
scalar Inet.sas0.host53.inetUser 	"Total ICMP bytes received" 	0
scalar Inet.sas0.host53.inetUser 	"Total ICMP packets received" 	0
scalar Inet.sas0.host53.inetUser 	"Initiated ICMP sessions" 	0
scalar Inet.sas0.host53.networkLayer.arp 	"ARP requests sent" 	0
scalar Inet.sas0.host53.networkLayer.arp 	"ARP replies sent" 	0
scalar Inet.sas0.host53.networkLayer.arp 	"ARP resolutions" 	0
scalar Inet.sas0.host53.networkLayer.arp 	"failed ARP resolutions" 	0
scalar Inet.sas0.host53.ppp[0].queue 	"packets received by queue" 	123
scalar Inet.sas0.host53.ppp[0].queue 	"packets dropped by queue" 	0
scalar Inet.sas0.host54.inetUser 	"Total bytes sent" 	2931
scalar Inet.sas0.host54.inetUser 	"Total packets sent" 	12
scalar Inet.sas0.host54.inetUser 	"Total bytes received" 	11222
scalar Inet.sas0.host54.inetUser 	"Total packets received" 	12
scalar Inet.sas0.host54.inetUser 	"Initiated sessions" 	8
scalar Inet.sas0.host54.inetUser 	"Total TCP bytes sent" 	2857
scalar Inet.sas0.host54.inetUser 	"Total TCP packets sent" 	11
scalar Inet.sas0.host54.inetUser 	"Total TCP bytes received" 	11148
scalar Inet.sas0.host54.inetUser 	"Total TCP packets received" 	11
scalar Inet.sas0.host54.inetUser 	"Initiated TCP sessions" 	7
scalar Inet.sas0.host54.inetUser 	"Total UDP bytes sent" 	0
scalar Inet.sas0.host54.inetUser 	"Total UDP packets sent" 	0
scalar Inet.sas0.host54.inetUser 	"Total UDP bytes received" 	0
scalar Inet.sas0.host54.inetUser 	"Total UDP packets received" 	0
scalar Inet.sas0.host54.inetUser 	"Initiated UDP sessions" 	0
scalar Inet.sas0.host54.inetUser 	"Total ICMP bytes sent" 	74
scalar Inet.sas0.host54.inetUser 	"Total ICMP packets sent" 	1
scalar Inet.sas0.host54.inetUser 	"Total ICMP bytes received" 	74
scalar Inet.sas0.host54.inetUser 	"Total ICMP packets received" 	1
scalar Inet.sas0.host54.inetUser 	"Initiated ICMP sessions" 	1
scalar Inet.sas0.host54.networkLayer.arp 	"ARP requests sent" 	0
scalar Inet.sas0.host54.networkLayer.arp 	"ARP replies sent" 	0
scalar Inet.sas0.host54.networkLayer.arp 	"ARP resolutions" 	0
scalar Inet.sas0.host54.networkLayer.arp 	"failed ARP resolutions" 	0
scalar Inet.sas0.host54.ppp[0].queue 	"packets received by queue" 	66
scalar Inet.sas0.host54.ppp[0].queue 	"packets dropped by queue" 	0
scalar Inet.sas0.host55.inetUser 	"Total bytes sent" 	64423
scalar Inet.sas0.host55.inetUser 	"Total packets sent" 	19
scalar Inet.sas0.host55.inetUser 	"Total bytes received" 	136026
scalar Inet.sas0.host55.inetUser 	"Total packets received" 	19
scalar Inet.sas0.host55.inetUser 	"Initiated sessions" 	13
scalar Inet.sas0.host55.inetUser 	"Total TCP bytes sent" 	63991
scalar Inet.sas0.host55.inetUser 	"Total TCP packets sent" 	16
scalar Inet.sas0.host55.inetUser 	"Total TCP bytes received" 	135596
scalar Inet.sas0.host55.inetUser 	"Total TCP packets received" 	16
scalar Inet.sas0.host55.inetUser 	"Initiated TCP sessions" 	11
scalar Inet.sas0.host55.inetUser 	"Total UDP bytes sent" 	302
scalar Inet.sas0.host55.inetUser 	"Total UDP packets sent" 	1
scalar Inet.sas0.host55.inetUser 	"Total UDP bytes received" 	300
scalar Inet.sas0.host55.inetUser 	"Total UDP packets received" 	1
scalar Inet.sas0.host55.inetUser 	"Initiated UDP sessions" 	1
scalar Inet.sas0.host55.inetUser 	"Total ICMP bytes sent" 	130
scalar Inet.sas0.host55.inetUser 	"Total ICMP packets sent" 	2
scalar Inet.sas0.host55.inetUser 	"Total ICMP bytes received" 	130
scalar Inet.sas0.host55.inetUser 	"Total ICMP packets received" 	2
scalar Inet.sas0.host55.inetUser 	"Initiated ICMP sessions" 	1
scalar Inet.sas0.host55.networkLayer.arp 	"ARP requests sent" 	0
scalar Inet.sas0.host55.networkLayer.arp 	"ARP replies sent" 	0
scalar Inet.sas0.host55.networkLayer.arp 	"ARP resolutions" 	0
scalar Inet.sas0.host55.networkLayer.arp 	"failed ARP resolutions" 	0
scalar Inet.sas0.host55.ppp[0].queue 	"packets received by queue" 	279
scalar Inet.sas0.host55.ppp[0].queue 	"packets dropped by queue" 	0
scalar Inet.sas0.host_WormHost56.networkLayer.ip 	"Total packets" 	0
scalar Inet.sas0.host_WormHost56.networkLayer.ip 	"TCP packets" 	0
scalar Inet.sas0.host_WormHost56.networkLayer.ip 	"UDP packets" 	0
scalar Inet.sas0.host_WormHost56.networkLayer.ip 	"ICMP packets" 	0
scalar Inet.sas0.host_WormHost56.networkLayer.arp 	"ARP requests sent" 	0
scalar Inet.sas0.host_WormHost56.networkLayer.arp 	"ARP replies sent" 	0
scalar Inet.sas0.host_WormHost56.networkLayer.arp 	"ARP resolutions" 	0
scalar Inet.sas0.host_WormHost56.networkLayer.arp 	"failed ARP resolutions" 	0
scalar Inet.sas0.host_WormHost56.ppp[0].queue 	"packets received by queue" 	0
scalar Inet.sas0.host_WormHost56.ppp[0].queue 	"packets dropped by queue" 	0
scalar Inet.sas0.host57.inetUser 	"Total bytes sent" 	18519
scalar Inet.sas0.host57.inetUser 	"Total packets sent" 	16
scalar Inet.sas0.host57.inetUser 	"Total bytes received" 	17516
scalar Inet.sas0.host57.inetUser 	"Total packets received" 	16
scalar Inet.sas0.host57.inetUser 	"Initiated sessions" 	11
scalar Inet.sas0.host57.inetUser 	"Total TCP bytes sent" 	17057
scalar Inet.sas0.host57.inetUser 	"Total TCP packets sent" 	12
scalar Inet.sas0.host57.inetUser 	"Total TCP bytes received" 	16140
scalar Inet.sas0.host57.inetUser 	"Total TCP packets received" 	12
scalar Inet.sas0.host57.inetUser 	"Initiated TCP sessions" 	8
scalar Inet.sas0.host57.inetUser 	"Total UDP bytes sent" 	1462
scalar Inet.sas0.host57.inetUser 	"Total UDP packets sent" 	4
scalar Inet.sas0.host57.inetUser 	"Total UDP bytes received" 	1376
scalar Inet.sas0.host57.inetUser 	"Total UDP packets received" 	4
scalar Inet.sas0.host57.inetUser 	"Initiated UDP sessions" 	3
scalar Inet.sas0.host57.inetUser 	"Total ICMP bytes sent" 	0
scalar Inet.sas0.host57.inetUser 	"Total ICMP packets sent" 	0
scalar Inet.sas0.host57.inetUser 	"Total ICMP bytes received" 	0
scalar Inet.sas0.host57.inetUser 	"Total ICMP packets received" 	0
scalar Inet.sas0.host57.inetUser 	"Initiated ICMP sessions" 	0
scalar Inet.sas0.host57.networkLayer.arp 	"ARP requests sent" 	0
scalar Inet.sas0.host57.networkLayer.arp 	"ARP replies sent" 	0
scalar Inet.sas0.host57.networkLayer.arp 	"ARP resolutions" 	0
scalar Inet.sas0.host57.networkLayer.arp 	"failed ARP resolutions" 	0
scalar Inet.sas0.host57.ppp[0].queue 	"packets received by queue" 	110
scalar Inet.sas0.host57.ppp[0].queue 	"packets dropped by queue" 	0
scalar Inet.sas0.host58.inetUser 	"Total bytes sent" 	60688
scalar Inet.sas0.host58.inetUser 	"Total packets sent" 	4
scalar Inet.sas0.host58.inetUser 	"Total bytes received" 	4311
[...]
scalar Inet.sas19.host51.inetUser 	"Total bytes received" 	9497
scalar Inet.sas19.host51.inetUser 	"Total packets received" 	12
scalar Inet.sas19.host51.inetUser 	"Initiated sessions" 	9
scalar Inet.sas19.host51.inetUser 	"Total TCP bytes sent" 	3192
scalar Inet.sas19.host51.inetUser 	"Total TCP packets sent" 	9
scalar Inet.sas19.host51.inetUser 	"Total TCP bytes received" 	9050
scalar Inet.sas19.host51.inetUser 	"Total TCP packets received" 	9
scalar Inet.sas19.host51.inetUser 	"Initiated TCP sessions" 	6
scalar Inet.sas19.host51.inetUser 	"Total UDP bytes sent" 	302
scalar Inet.sas19.host51.inetUser 	"Total UDP packets sent" 	1
scalar Inet.sas19.host51.inetUser 	"Total UDP bytes received" 	304
scalar Inet.sas19.host51.inetUser 	"Total UDP packets received" 	1
scalar Inet.sas19.host51.inetUser 	"Initiated UDP sessions" 	1
scalar Inet.sas19.host51.inetUser 	"Total ICMP bytes sent" 	143
scalar Inet.sas19.host51.inetUser 	"Total ICMP packets sent" 	2
scalar Inet.sas19.host51.inetUser 	"Total ICMP bytes received" 	143
scalar Inet.sas19.host51.inetUser 	"Total ICMP packets received" 	2
scalar Inet.sas19.host51.inetUser 	"Initiated ICMP sessions" 	2
scalar Inet.sas19.host51.networkLayer.arp 	"ARP requests sent" 	0
scalar Inet.sas19.host51.networkLayer.arp 	"ARP replies sent" 	0
scalar Inet.sas19.host51.networkLayer.arp 	"ARP resolutions" 	0
scalar Inet.sas19.host51.networkLayer.arp 	"failed ARP resolutions" 	0
scalar Inet.sas19.host51.ppp[0].queue 	"packets received by queue" 	49
scalar Inet.sas19.host51.ppp[0].queue 	"packets dropped by queue" 	0
scalar Inet.sas19.host_WormHost52.networkLayer.ip 	"Total packets" 	0
scalar Inet.sas19.host_WormHost52.networkLayer.ip 	"TCP packets" 	0
scalar Inet.sas19.host_WormHost52.networkLayer.ip 	"UDP packets" 	0
scalar Inet.sas19.host_WormHost52.networkLayer.ip 	"ICMP packets" 	0
scalar Inet.sas19.host_WormHost52.networkLayer.arp 	"ARP requests sent" 	0
scalar Inet.sas19.host_WormHost52.networkLayer.arp 	"ARP replies sent" 	0
scalar Inet.sas19.host_WormHost52.networkLayer.arp 	"ARP resolutions" 	0
scalar Inet.sas19.host_WormHost52.networkLayer.arp 	"failed ARP resolutions" 	0
scalar Inet.sas19.host_WormHost52.ppp[0].queue 	"packets received by queue" 	0
scalar Inet.sas19.host_WormHost52.ppp[0].queue 	"packets dropped by queue" 	0
scalar Inet.sas19.host53.inetUser 	"Total bytes sent" 	133737
scalar Inet.sas19.host53.inetUser 	"Total packets sent" 	127
scalar Inet.sas19.host53.inetUser 	"Total bytes received" 	9984
scalar Inet.sas19.host53.inetUser 	"Total packets received" 	11
scalar Inet.sas19.host53.inetUser 	"Initiated sessions" 	8
scalar Inet.sas19.host53.inetUser 	"Total TCP bytes sent" 	13141
scalar Inet.sas19.host53.inetUser 	"Total TCP packets sent" 	9
scalar Inet.sas19.host53.inetUser 	"Total TCP bytes received" 	9000
scalar Inet.sas19.host53.inetUser 	"Total TCP packets received" 	9
scalar Inet.sas19.host53.inetUser 	"Initiated TCP sessions" 	7
scalar Inet.sas19.host53.inetUser 	"Total UDP bytes sent" 	120596
scalar Inet.sas19.host53.inetUser 	"Total UDP packets sent" 	118
scalar Inet.sas19.host53.inetUser 	"Total UDP bytes received" 	984
scalar Inet.sas19.host53.inetUser 	"Total UDP packets received" 	2
scalar Inet.sas19.host53.inetUser 	"Initiated UDP sessions" 	1
scalar Inet.sas19.host53.inetUser 	"Total ICMP bytes sent" 	0
scalar Inet.sas19.host53.inetUser 	"Total ICMP packets sent" 	0
scalar Inet.sas19.host53.inetUser 	"Total ICMP bytes received" 	0
scalar Inet.sas19.host53.inetUser 	"Total ICMP packets received" 	0
scalar Inet.sas19.host53.inetUser 	"Initiated ICMP sessions" 	0
scalar Inet.sas19.host53.networkLayer.arp 	"ARP requests sent" 	0
scalar Inet.sas19.host53.networkLayer.arp 	"ARP replies sent" 	0
scalar Inet.sas19.host53.networkLayer.arp 	"ARP resolutions" 	0
scalar Inet.sas19.host53.networkLayer.arp 	"failed ARP resolutions" 	0
scalar Inet.sas19.host53.ppp[0].queue 	"packets received by queue" 	274
scalar Inet.sas19.host53.ppp[0].queue 	"packets dropped by queue" 	0
scalar Inet.sas19.host_WormHost54.networkLayer.ip 	"Total packets" 	0
scalar Inet.sas19.host_WormHost54.networkLayer.ip 	"TCP packets" 	0
scalar Inet.sas19.host_WormHost54.networkLayer.ip 	"UDP packets" 	0
scalar Inet.sas19.host_WormHost54.networkLayer.ip 	"ICMP packets" 	0
scalar Inet.sas19.host_WormHost54.networkLayer.arp 	"ARP requests sent" 	0
scalar Inet.sas19.host_WormHost54.networkLayer.arp 	"ARP replies sent" 	0
scalar Inet.sas19.host_WormHost54.networkLayer.arp 	"ARP resolutions" 	0
scalar Inet.sas19.host_WormHost54.networkLayer.arp 	"failed ARP resolutions" 	0
scalar Inet.sas19.host_WormHost54.ppp[0].queue 	"packets received by queue" 	0
scalar Inet.sas19.host_WormHost54.ppp[0].queue 	"packets dropped by queue" 	0
scalar Inet.sas19.host55.inetUser 	"Total bytes sent" 	3877
scalar Inet.sas19.host55.inetUser 	"Total packets sent" 	13
scalar Inet.sas19.host55.inetUser 	"Total bytes received" 	17605
scalar Inet.sas19.host55.inetUser 	"Total packets received" 	13
scalar Inet.sas19.host55.inetUser 	"Initiated sessions" 	10
scalar Inet.sas19.host55.inetUser 	"Total TCP bytes sent" 	2284
scalar Inet.sas19.host55.inetUser 	"Total TCP packets sent" 	7
scalar Inet.sas19.host55.inetUser 	"Total TCP bytes received" 	7700
scalar Inet.sas19.host55.inetUser 	"Total TCP packets received" 	7
scalar Inet.sas19.host55.inetUser 	"Initiated TCP sessions" 	6
scalar Inet.sas19.host55.inetUser 	"Total UDP bytes sent" 	1526
scalar Inet.sas19.host55.inetUser 	"Total UDP packets sent" 	5
scalar Inet.sas19.host55.inetUser 	"Total UDP bytes received" 	9838
scalar Inet.sas19.host55.inetUser 	"Total UDP packets received" 	5
scalar Inet.sas19.host55.inetUser 	"Initiated UDP sessions" 	3
scalar Inet.sas19.host55.inetUser 	"Total ICMP bytes sent" 	67
scalar Inet.sas19.host55.inetUser 	"Total ICMP packets sent" 	1
scalar Inet.sas19.host55.inetUser 	"Total ICMP bytes received" 	67
scalar Inet.sas19.host55.inetUser 	"Total ICMP packets received" 	1
scalar Inet.sas19.host55.inetUser 	"Initiated ICMP sessions" 	1
scalar Inet.sas19.host55.networkLayer.arp 	"ARP requests sent" 	0
scalar Inet.sas19.host55.networkLayer.arp 	"ARP replies sent" 	0
scalar Inet.sas19.host55.networkLayer.arp 	"ARP resolutions" 	0
scalar Inet.sas19.host55.networkLayer.arp 	"failed ARP resolutions" 	0
scalar Inet.sas19.host55.ppp[0].queue 	"packets received by queue" 	52
scalar Inet.sas19.host55.ppp[0].queue 	"packets dropped by queue" 	0
scalar Inet.sas19.host56.inetUser 	"Total bytes sent" 	136549
scalar Inet.sas19.host56.inetUser 	"Total packets sent" 	15
scalar Inet.sas19.host56.inetUser 	"Total bytes received" 	18626
scalar Inet.sas19.host56.inetUser 	"Total packets received" 	15
scalar Inet.sas19.host56.inetUser 	"Initiated sessions" 	12
scalar Inet.sas19.host56.inetUser 	"Total TCP bytes sent" 	136245
scalar Inet.sas19.host56.inetUser 	"Total TCP packets sent" 	14
scalar Inet.sas19.host56.inetUser 	"Total TCP bytes received" 	18325
scalar Inet.sas19.host56.inetUser 	"Total TCP packets received" 	14
scalar Inet.sas19.host56.inetUser 	"Initiated TCP sessions" 	11
scalar Inet.sas19.host56.inetUser 	"Total UDP bytes sent" 	304
scalar Inet.sas19.host56.inetUser 	"Total UDP packets sent" 	1
scalar Inet.sas19.host56.inetUser 	"Total UDP bytes received" 	301
scalar Inet.sas19.host56.inetUser 	"Total UDP packets received" 	1
scalar Inet.sas19.host56.inetUser 	"Initiated UDP sessions" 	1
scalar Inet.sas19.host56.inetUser 	"Total ICMP bytes sent" 	0
scalar Inet.sas19.host56.inetUser 	"Total ICMP packets sent" 	0
scalar Inet.sas19.host56.inetUser 	"Total ICMP bytes received" 	0
scalar Inet.sas19.host56.inetUser 	"Total ICMP packets received" 	0
scalar Inet.sas19.host56.inetUser 	"Initiated ICMP sessions" 	0
scalar Inet.sas19.host56.networkLayer.arp 	"ARP requests sent" 	0
scalar Inet.sas19.host56.networkLayer.arp 	"ARP replies sent" 	0
scalar Inet.sas19.host56.networkLayer.arp 	"ARP resolutions" 	0
scalar Inet.sas19.host56.networkLayer.arp 	"failed ARP resolutions" 	0
scalar Inet.sas19.host56.ppp[0].queue 	"packets received by queue" 	221
scalar Inet.sas19.host56.ppp[0].queue 	"packets dropped by queue" 	0
scalar Inet.sas19.host57.inetUser 	"Total bytes sent" 	8586
scalar Inet.sas19.host57.inetUser 	"Total packets sent" 	13
scalar Inet.sas19.host57.inetUser 	"Total bytes received" 	15381
scalar Inet.sas19.host57.inetUser 	"Total packets received" 	13
scalar Inet.sas19.host57.inetUser 	"Initiated sessions" 	9
scalar Inet.sas19.host57.inetUser 	"Total TCP bytes sent" 	5242
scalar Inet.sas19.host57.inetUser 	"Total TCP packets sent" 	12
scalar Inet.sas19.host57.inetUser 	"Total TCP bytes received" 	12037
scalar Inet.sas19.host57.inetUser 	"Total TCP packets received" 	12
scalar Inet.sas19.host57.inetUser 	"Initiated TCP sessions" 	8
scalar Inet.sas19.host57.inetUser 	"Total UDP bytes sent" 	0
scalar Inet.sas19.host57.inetUser 	"Total UDP packets sent" 	0
scalar Inet.sas19.host57.inetUser 	"Total UDP bytes received" 	0
scalar Inet.sas19.host57.inetUser 	"Total UDP packets received" 	0
scalar Inet.sas19.host57.inetUser 	"Initiated UDP sessions" 	0
scalar Inet.sas19.host57.inetUser 	"Total ICMP bytes sent" 	3344
scalar Inet.sas19.host57.inetUser 	"Total ICMP packets sent" 	1
scalar Inet.sas19.host57.inetUser 	"Total ICMP bytes received" 	3344
scalar Inet.sas19.host57.inetUser 	"Total ICMP packets received" 	1
scalar Inet.sas19.host57.inetUser 	"Initiated ICMP sessions" 	1
scalar Inet.sas19.host57.networkLayer.arp 	"ARP requests sent" 	0
scalar Inet.sas19.host57.networkLayer.arp 	"ARP replies sent" 	0
scalar Inet.sas19.host57.networkLayer.arp 	"ARP resolutions" 	0
scalar Inet.sas19.host57.networkLayer.arp 	"failed ARP resolutions" 	0
scalar Inet.sas19.host57.ppp[0].queue 	"packets received by queue" 	80
scalar Inet.sas19.host57.ppp[0].queue 	"packets dropped by queue" 	0
scalar Inet.sas19.host58.inetUser 	"Total bytes sent" 	120924
scalar Inet.sas19.host58.inetUser 	"Total packets sent" 	64
scalar Inet.sas19.host58.inetUser 	"Total bytes received" 	4263
scalar Inet.sas19.host58.inetUser 	"Total packets received" 	6
scalar Inet.sas19.host58.inetUser 	"Initiated sessions" 	3
scalar Inet.sas19.host58.inetUser 	"Total TCP bytes sent" 	60487
scalar Inet.sas19.host58.inetUser 	"Total TCP packets sent" 	3
scalar Inet.sas19.host58.inetUser 	"Total TCP bytes received" 	3824
scalar Inet.sas19.host58.inetUser 	"Total TCP packets received" 	3
scalar Inet.sas19.host58.inetUser 	"Initiated TCP sessions" 	1
scalar Inet.sas19.host58.inetUser 	"Total UDP bytes sent" 	60298
scalar Inet.sas19.host58.inetUser 	"Total UDP packets sent" 	59
scalar Inet.sas19.host58.inetUser 	"Total UDP bytes received" 	300
scalar Inet.sas19.host58.inetUser 	"Total UDP packets received" 	1
scalar Inet.sas19.host58.inetUser 	"Initiated UDP sessions" 	1
scalar Inet.sas19.host58.inetUser 	"Total ICMP bytes sent" 	139
scalar Inet.sas19.host58.inetUser 	"Total ICMP packets sent" 	2
scalar Inet.sas19.host58.inetUser 	"Total ICMP bytes received" 	139
scalar Inet.sas19.host58.inetUser 	"Total ICMP packets received" 	2
scalar Inet.sas19.host58.inetUser 	"Initiated ICMP sessions" 	1
scalar Inet.sas19.host58.networkLayer.arp 	"ARP requests sent" 	0
scalar Inet.sas19.host58.networkLayer.arp 	"ARP replies sent" 	0
scalar Inet.sas19.host58.networkLayer.arp 	"ARP resolutions" 	0
scalar Inet.sas19.host58.networkLayer.arp 	"failed ARP resolutions" 	0
scalar Inet.sas19.host58.ppp[0].queue 	"packets received by queue" 	140
scalar Inet.sas19.host58.ppp[0].queue 	"packets dropped by queue" 	0
scalar Inet.sas19.host59.inetUser 	"Total bytes sent" 	6719
scalar Inet.sas19.host59.inetUser 	"Total packets sent" 	9
scalar Inet.sas19.host59.inetUser 	"Total bytes received" 	7413
scalar Inet.sas19.host59.inetUser 	"Total packets received" 	9
scalar Inet.sas19.host59.inetUser 	"Initiated sessions" 	6
scalar Inet.sas19.host59.inetUser 	"Total TCP bytes sent" 	6352
scalar Inet.sas19.host59.inetUser 	"Total TCP packets sent" 	7
scalar Inet.sas19.host59.inetUser 	"Total TCP bytes received" 	7048
scalar Inet.sas19.host59.inetUser 	"Total TCP packets received" 	7
scalar Inet.sas19.host59.inetUser 	"Initiated TCP sessions" 	4
scalar Inet.sas19.host59.inetUser 	"Total UDP bytes sent" 	303
scalar Inet.sas19.host59.inetUser 	"Total UDP packets sent" 	1
scalar Inet.sas19.host59.inetUser 	"Total UDP bytes received" 	301
scalar Inet.sas19.host59.inetUser 	"Total UDP packets received" 	1
scalar Inet.sas19.host59.inetUser 	"Initiated UDP sessions" 	1
scalar Inet.sas19.host59.inetUser 	"Total ICMP bytes sent" 	64
scalar Inet.sas19.host59.inetUser 	"Total ICMP packets sent" 	1
scalar Inet.sas19.host59.inetUser 	"Total ICMP bytes received" 	64
scalar Inet.sas19.host59.inetUser 	"Total ICMP packets received" 	1
scalar Inet.sas19.host59.inetUser 	"Initiated ICMP sessions" 	1
scalar Inet.sas19.host59.networkLayer.arp 	"ARP requests sent" 	0
scalar Inet.sas19.host59.networkLayer.arp 	"ARP replies sent" 	0
scalar Inet.sas19.host59.networkLayer.arp 	"ARP resolutions" 	0
scalar Inet.sas19.host59.networkLayer.arp 	"failed ARP resolutions" 	0
scalar Inet.sas19.host59.ppp[0].queue 	"packets received by queue" 	46
scalar Inet.sas19.host59.ppp[0].queue 	"packets dropped by queue" 	0
scalar Inet.sas19.host60.inetUser 	"Total bytes sent" 	6588
scalar Inet.sas19.host60.inetUser 	"Total packets sent" 	20
scalar Inet.sas19.host60.inetUser 	"Total bytes received" 	24047
scalar Inet.sas19.host60.inetUser 	"Total packets received" 	20
scalar Inet.sas19.host60.inetUser 	"Initiated sessions" 	15
scalar Inet.sas19.host60.inetUser 	"Total TCP bytes sent" 	6137
scalar Inet.sas19.host60.inetUser 	"Total TCP packets sent" 	17
scalar Inet.sas19.host60.inetUser 	"Total TCP bytes received" 	22737
scalar Inet.sas19.host60.inetUser 	"Total TCP packets received" 	17
scalar Inet.sas19.host60.inetUser 	"Initiated TCP sessions" 	12
scalar Inet.sas19.host60.inetUser 	"Total UDP bytes sent" 	300
scalar Inet.sas19.host60.inetUser 	"Total UDP packets sent" 	1
scalar Inet.sas19.host60.inetUser 	"Total UDP bytes received" 	1159
scalar Inet.sas19.host60.inetUser 	"Total UDP packets received" 	1
scalar Inet.sas19.host60.inetUser 	"Initiated UDP sessions" 	1
scalar Inet.sas19.host60.inetUser 	"Total ICMP bytes sent" 	151
scalar Inet.sas19.host60.inetUser 	"Total ICMP packets sent" 	2
scalar Inet.sas19.host60.inetUser 	"Total ICMP bytes received" 	151
scalar Inet.sas19.host60.inetUser 	"Total ICMP packets received" 	2
scalar Inet.sas19.host60.inetUser 	"Initiated ICMP sessions" 	2
scalar Inet.sas19.host60.networkLayer.arp 	"ARP requests sent" 	0
scalar Inet.sas19.host60.networkLayer.arp 	"ARP replies sent" 	0
scalar Inet.sas19.host60.networkLayer.arp 	"ARP resolutions" 	0
scalar Inet.sas19.host60.networkLayer.arp 	"failed ARP resolutions" 	0
scalar Inet.sas19.host60.ppp[0].queue 	"packets received by queue" 	115
scalar Inet.sas19.host60.ppp[0].queue 	"packets dropped by queue" 	0
scalar Inet.sas19.host61.inetUser 	"Total bytes sent" 	15527
scalar Inet.sas19.host61.inetUser 	"Total packets sent" 	11
scalar Inet.sas19.host61.inetUser 	"Total bytes received" 	70253
scalar Inet.sas19.host61.inetUser 	"Total packets received" 	11
scalar Inet.sas19.host61.inetUser 	"Initiated sessions" 	8
scalar Inet.sas19.host61.inetUser 	"Total TCP bytes sent" 	14605
scalar Inet.sas19.host61.inetUser 	"Total TCP packets sent" 	8
scalar Inet.sas19.host61.inetUser 	"Total TCP bytes received" 	9401
scalar Inet.sas19.host61.inetUser 	"Total TCP packets received" 	8
scalar Inet.sas19.host61.inetUser 	"Initiated TCP sessions" 	6
scalar Inet.sas19.host61.inetUser 	"Total UDP bytes sent" 	922
scalar Inet.sas19.host61.inetUser 	"Total UDP packets sent" 	3
scalar Inet.sas19.host61.inetUser 	"Total UDP bytes received" 	60852
scalar Inet.sas19.host61.inetUser 	"Total UDP packets received" 	3
scalar Inet.sas19.host61.inetUser 	"Initiated UDP sessions" 	2
scalar Inet.sas19.host61.inetUser 	"Total ICMP bytes sent" 	0
scalar Inet.sas19.host61.inetUser 	"Total ICMP packets sent" 	0
scalar Inet.sas19.host61.inetUser 	"Total ICMP bytes received" 	0
scalar Inet.sas19.host61.inetUser 	"Total ICMP packets received" 	0
scalar Inet.sas19.host61.inetUser 	"Initiated ICMP sessions" 	0
scalar Inet.sas19.host61.networkLayer.arp 	"ARP requests sent" 	0
scalar Inet.sas19.host61.networkLayer.arp 	"ARP replies sent" 	0
scalar Inet.sas19.host61.networkLayer.arp 	"ARP resolutions" 	0
scalar Inet.sas19.host61.networkLayer.arp 	"failed ARP resolutions" 	0
scalar Inet.sas19.host61.ppp[0].queue 	"packets received by queue" 	185
scalar Inet.sas19.host61.ppp[0].queue 	"packets dropped by queue" 	0
scalar Inet.sas19.host62.inetUser 	"Total bytes sent" 	5235
scalar Inet.sas19.host62.inetUser 	"Total packets sent" 	10
scalar Inet.sas19.host62.inetUser 	"Total bytes received" 	8822
scalar Inet.sas19.host62.inetUser 	"Total packets received" 	10
scalar Inet.sas19.host62.inetUser 	"Initiated sessions" 	9
scalar Inet.sas19.host62.inetUser 	"Total TCP bytes sent" 	4585
scalar Inet.sas19.host62.inetUser 	"Total TCP packets sent" 	8
scalar Inet.sas19.host62.inetUser 	"Total TCP bytes received" 	8203
scalar Inet.sas19.host62.inetUser 	"Total TCP packets received" 	8
scalar Inet.sas19.host62.inetUser 	"Initiated TCP sessions" 	7
scalar Inet.sas19.host62.inetUser 	"Total UDP bytes sent" 	650
scalar Inet.sas19.host62.inetUser 	"Total UDP packets sent" 	2
scalar Inet.sas19.host62.inetUser 	"Total UDP bytes received" 	619
scalar Inet.sas19.host62.inetUser 	"Total UDP packets received" 	2
scalar Inet.sas19.host62.inetUser 	"Initiated UDP sessions" 	2
scalar Inet.sas19.host62.inetUser 	"Total ICMP bytes sent" 	0
scalar Inet.sas19.host62.inetUser 	"Total ICMP packets sent" 	0
scalar Inet.sas19.host62.inetUser 	"Total ICMP bytes received" 	0
scalar Inet.sas19.host62.inetUser 	"Total ICMP packets received" 	0
scalar Inet.sas19.host62.inetUser 	"Initiated ICMP sessions" 	0
scalar Inet.sas19.host62.networkLayer.arp 	"ARP requests sent" 	0
scalar Inet.sas19.host62.networkLayer.arp 	"ARP replies sent" 	0
scalar Inet.sas19.host62.networkLayer.arp 	"ARP resolutions" 	0
scalar Inet.sas19.host62.networkLayer.arp 	"failed ARP resolutions" 	0
scalar Inet.sas19.host62.ppp[0].queue 	"packets received by queue" 	57
scalar Inet.sas19.host62.ppp[0].queue 	"packets dropped by queue" 	0
scalar Inet.sas19.host63.inetUser 	"Total bytes sent" 	1562
scalar Inet.sas19.host63.inetUser 	"Total packets sent" 	5
scalar Inet.sas19.host63.inetUser 	"Total bytes received" 	4707
scalar Inet.sas19.host63.inetUser 	"Total packets received" 	5
scalar Inet.sas19.host63.inetUser 	"Initiated sessions" 	4
scalar Inet.sas19.host63.inetUser 	"Total TCP bytes sent" 	898
scalar Inet.sas19.host63.inetUser 	"Total TCP packets sent" 	2
scalar Inet.sas19.host63.inetUser 	"Total TCP bytes received" 	4043
scalar Inet.sas19.host63.inetUser 	"Total TCP packets received" 	2
scalar Inet.sas19.host63.inetUser 	"Initiated TCP sessions" 	2
scalar Inet.sas19.host63.inetUser 	"Total UDP bytes sent" 	600
scalar Inet.sas19.host63.inetUser 	"Total UDP packets sent" 	2
scalar Inet.sas19.host63.inetUser 	"Total UDP bytes received" 	600
scalar Inet.sas19.host63.inetUser 	"Total UDP packets received" 	2
scalar Inet.sas19.host63.inetUser 	"Initiated UDP sessions" 	1
scalar Inet.sas19.host63.inetUser 	"Total ICMP bytes sent" 	64
scalar Inet.sas19.host63.inetUser 	"Total ICMP packets sent" 	1
scalar Inet.sas19.host63.inetUser 	"Total ICMP bytes received" 	64
scalar Inet.sas19.host63.inetUser 	"Total ICMP packets received" 	1
scalar Inet.sas19.host63.inetUser 	"Initiated ICMP sessions" 	1
scalar Inet.sas19.host63.networkLayer.arp 	"ARP requests sent" 	0
scalar Inet.sas19.host63.networkLayer.arp 	"ARP replies sent" 	0
scalar Inet.sas19.host63.networkLayer.arp 	"ARP resolutions" 	0
scalar Inet.sas19.host63.networkLayer.arp 	"failed ARP resolutions" 	0
scalar Inet.sas19.host63.ppp[0].queue 	"packets received by queue" 	21
scalar Inet.sas19.host63.ppp[0].queue 	"packets dropped by queue" 	0
